*SPEF "ieee 1481-1999"
*DESIGN "rcAdder"
*DATE "02:22:31 Thursday February 27, 2025"
*VENDOR "The OpenROAD Project"
*PROGRAM "OpenROAD"
*VERSION "v2.0-16235-gedf00dff9"
*DESIGN_FLOW "NAME_SCOPE LOCAL" "PIN_CAP NONE"
*DIVIDER /
*DELIMITER :
*BUS_DELIMITER []
*T_UNIT 1 NS
*C_UNIT 1 PF
*R_UNIT 1 OHM
*L_UNIT 1 HENRY

*NAME_MAP
*3 a_i[0]
*4 a_i[1]
*5 a_i[2]
*6 a_i[3]
*7 b_i[0]
*8 b_i[1]
*9 b_i[2]
*10 b_i[3]
*11 carry_o
*12 clk
*13 sum_o[0]
*14 sum_o[1]
*15 sum_o[2]
*16 sum_o[3]
*17 _00_
*18 _01_
*19 _02_
*20 _03_
*21 _04_
*22 _05_
*23 _06_
*24 _07_
*25 _08_
*26 _09_
*27 _10_
*28 _11_
*29 clknet_0_clk
*30 clknet_1_0__leaf_clk
*31 clknet_1_1__leaf_clk
*32 fa0\.sum_l
*33 genblk1\[1\]\.fa0\.sum_o
*34 genblk1\[2\]\.fa0\.sum_o
*35 genblk1\[3\]\.fa0\.sum_o
*36 net1
*37 net10
*38 net11
*39 net12
*40 net13
*41 net2
*42 net3
*43 net4
*44 net5
*45 net6
*46 net7
*47 net8
*48 net9
*49 FILLER_0_18
*50 FILLER_0_26
*51 FILLER_0_29
*52 FILLER_0_6
*53 FILLER_1_18
*54 FILLER_1_30
*55 FILLER_1_42
*56 FILLER_1_6
*57 FILLER_2_13
*58 FILLER_2_22
*59 FILLER_2_29
*60 FILLER_3_23
*61 FILLER_3_3
*62 FILLER_4_10
*63 FILLER_4_16
*64 FILLER_4_29
*65 FILLER_4_6
*66 FILLER_5_14
*67 FILLER_5_20
*68 FILLER_5_32
*69 FILLER_5_6
*70 FILLER_6_29
*71 FILLER_7_18
*72 FILLER_7_30
*73 FILLER_7_42
*74 FILLER_8_21
*75 FILLER_8_27
*76 FILLER_8_29
*77 FILLER_8_9
*78 PHY_EDGE_ROW_0_Left_9
*79 PHY_EDGE_ROW_0_Right_0
*80 PHY_EDGE_ROW_1_Left_10
*81 PHY_EDGE_ROW_1_Right_1
*82 PHY_EDGE_ROW_2_Left_11
*83 PHY_EDGE_ROW_2_Right_2
*84 PHY_EDGE_ROW_3_Left_12
*85 PHY_EDGE_ROW_3_Right_3
*86 PHY_EDGE_ROW_4_Left_13
*87 PHY_EDGE_ROW_4_Right_4
*88 PHY_EDGE_ROW_5_Left_14
*89 PHY_EDGE_ROW_5_Right_5
*90 PHY_EDGE_ROW_6_Left_15
*91 PHY_EDGE_ROW_6_Right_6
*92 PHY_EDGE_ROW_7_Left_16
*93 PHY_EDGE_ROW_7_Right_7
*94 PHY_EDGE_ROW_8_Left_17
*95 PHY_EDGE_ROW_8_Right_8
*96 TAP_TAPCELL_ROW_0_18
*97 TAP_TAPCELL_ROW_2_19
*98 TAP_TAPCELL_ROW_4_20
*99 TAP_TAPCELL_ROW_6_21
*100 TAP_TAPCELL_ROW_8_22
*101 _12_
*102 _13_
*103 _14_
*104 _15_
*105 _16_
*106 _17_
*107 _18_
*108 _19_
*109 _20_
*110 _21_
*111 _22_
*112 _23_
*113 _24_
*114 _25_
*115 _26_
*116 _27_
*117 _28_
*118 _29_
*119 _30_
*120 _31_
*121 _32_
*122 clkbuf_0_clk
*123 clkbuf_1_0__f_clk
*124 clkbuf_1_1__f_clk
*125 input1
*126 input2
*127 input3
*128 input4
*129 input5
*130 input6
*131 input7
*132 input8
*133 output10
*134 output11
*135 output12
*136 output13
*137 output9

*PORTS
a_i[0] I
a_i[1] I
a_i[2] I
a_i[3] I
b_i[0] I
b_i[1] I
b_i[2] I
b_i[3] I
carry_o O
clk I
sum_o[0] O
sum_o[1] O
sum_o[2] O
sum_o[3] O

*D_NET *3 0.000873984
*CONN
*P a_i[0] I
*I *125:A I *D sky130_fd_sc_hd__buf_1
*CAP
1 a_i[0] 0.000324158
2 *125:A 0.000324158
3 *125:A *130:A 0.000225669
*RES
1 a_i[0] *125:A 9.19043 
*END

*D_NET *4 0.000679395
*CONN
*P a_i[1] I
*I *126:A I *D sky130_fd_sc_hd__clkbuf_1
*CAP
1 a_i[1] 0.00030992
2 *126:A 0.00030992
3 *126:A *129:A 3.14094e-05
4 *126:A *130:A 2.81454e-05
5 *126:A *131:A 0
6 *126:A *41:10 0
*RES
1 a_i[1] *126:A 8.1093 
*END

*D_NET *5 0.000642924
*CONN
*P a_i[2] I
*I *127:A I *D sky130_fd_sc_hd__clkbuf_1
*CAP
1 a_i[2] 0.000295399
2 *127:A 0.000295399
3 *127:A carry_o 2.24901e-05
4 *127:A *105:B 0
5 *127:A *131:A 2.96366e-05
*RES
1 a_i[2] *127:A 7.8543 
*END

*D_NET *6 0.000596511
*CONN
*P a_i[3] I
*I *128:A I *D sky130_fd_sc_hd__clkbuf_1
*CAP
1 a_i[3] 0.000284756
2 *128:A 0.000284756
3 *128:A *132:A 2.69997e-05
*RES
1 a_i[3] *128:A 7.3443 
*END

*D_NET *7 0.00069531
*CONN
*P b_i[0] I
*I *129:A I *D sky130_fd_sc_hd__buf_1
*CAP
1 b_i[0] 0.000317697
2 *129:A 0.000317697
3 *129:A *115:B 0
4 *129:A *131:A 2.85068e-05
5 *126:A *129:A 3.14094e-05
*RES
1 b_i[0] *129:A 5.53157 
*END

*D_NET *8 0.000912923
*CONN
*P b_i[1] I
*I *130:A I *D sky130_fd_sc_hd__clkbuf_1
*CAP
1 b_i[1] 0.000299806
2 *130:A 0.000299806
3 *130:A *36:8 5.94962e-05
4 *125:A *130:A 0.000225669
5 *126:A *130:A 2.81454e-05
*RES
1 b_i[1] *130:A 8.3343 
*END

*D_NET *9 0.000623243
*CONN
*P b_i[2] I
*I *131:A I *D sky130_fd_sc_hd__clkbuf_1
*CAP
1 b_i[2] 0.00028255
2 *131:A 0.00028255
3 *126:A *131:A 0
4 *127:A *131:A 2.96366e-05
5 *129:A *131:A 2.85068e-05
*RES
1 b_i[2] *131:A 7.5993 
*END

*D_NET *10 0.000577696
*CONN
*P b_i[3] I
*I *132:A I *D sky130_fd_sc_hd__clkbuf_1
*CAP
1 b_i[3] 0.00025274
2 *132:A 0.00025274
3 *132:A carry_o 4.52158e-05
4 *128:A *132:A 2.69997e-05
*RES
1 b_i[3] *132:A 7.0893 
*END

*D_NET *11 0.000663697
*CONN
*P carry_o O
*I *137:X O *D sky130_fd_sc_hd__buf_2
*CAP
1 carry_o 0.000297995
2 *137:X 0.000297995
3 *127:A carry_o 2.24901e-05
4 *132:A carry_o 4.52158e-05
*RES
1 *137:X carry_o 7.1793 
*END

*D_NET *12 0.00050309
*CONN
*P clk I
*I *122:A I *D sky130_fd_sc_hd__clkbuf_16
*CAP
1 clk 0.000175877
2 *122:A 0.000175877
3 *122:A sum_o[0] 6.59989e-05
4 *122:A sum_o[1] 0
5 *122:A sum_o[2] 8.53361e-05
*RES
1 clk *122:A 5.61177 
*END

*D_NET *13 0.00115289
*CONN
*P sum_o[0] O
*I *133:X O *D sky130_fd_sc_hd__buf_2
*CAP
1 sum_o[0] 0.000440031
2 *133:X 0.000440031
3 sum_o[0] sum_o[1] 6.21254e-05
4 sum_o[0] *133:A 0.000106056
5 sum_o[0] *134:A 3.86529e-05
6 *122:A sum_o[0] 6.59989e-05
*RES
1 *133:X sum_o[0] 9.63523 
*END

*D_NET *14 0.000558817
*CONN
*P sum_o[1] O
*I *134:X O *D sky130_fd_sc_hd__buf_2
*CAP
1 sum_o[1] 0.000238697
2 *134:X 0.000238697
3 sum_o[1] *133:A 1.92979e-05
4 sum_o[0] sum_o[1] 6.21254e-05
5 *122:A sum_o[1] 0
*RES
1 *134:X sum_o[1] 4.9633 
*END

*D_NET *15 0.000991939
*CONN
*P sum_o[2] O
*I *135:X O *D sky130_fd_sc_hd__buf_2
*CAP
1 sum_o[2] 0.000334683
2 *135:X 0.000334683
3 sum_o[2] sum_o[3] 9.92403e-05
4 sum_o[2] *135:A 0.000137996
5 *122:A sum_o[2] 8.53361e-05
*RES
1 *135:X sum_o[2] 8.5333 
*END

*D_NET *16 0.000861468
*CONN
*P sum_o[3] O
*I *136:X O *D sky130_fd_sc_hd__buf_2
*CAP
1 sum_o[3] 0.000381114
2 *136:X 0.000381114
3 sum_o[3] *30:10 0
4 sum_o[2] sum_o[3] 9.92403e-05
*RES
1 *136:X sum_o[3] 6.21637 
*END

*D_NET *17 0.000245373
*CONN
*I *104:B1 I *D sky130_fd_sc_hd__a31o_1
*I *101:X O *D sky130_fd_sc_hd__and2_1
*CAP
1 *104:B1 4.25835e-05
2 *101:X 4.25835e-05
3 *104:B1 *115:B 5.53249e-06
4 *104:B1 *18:14 9.54469e-05
5 *104:B1 *36:12 5.92269e-05
*RES
1 *101:X *104:B1 8.58 
*END

*D_NET *18 0.000888026
*CONN
*I *104:A3 I *D sky130_fd_sc_hd__a31o_1
*I *117:A I *D sky130_fd_sc_hd__xnor2_1
*I *102:X O *D sky130_fd_sc_hd__xor2_1
*CAP
1 *104:A3 0
2 *117:A 9.82928e-05
3 *102:X 0.000150744
4 *18:14 0.000249037
5 *117:A *104:A1 5.4155e-06
6 *117:A *116:A 4.66108e-05
7 *117:A *44:19 0.000159156
8 *18:14 *41:10 2.67022e-05
9 *18:14 *44:8 2.66586e-05
10 *18:14 *44:19 2.99629e-05
11 *104:B1 *18:14 9.54469e-05
*RES
1 *102:X *18:14 8.57 
2 *18:14 *117:A 3.79 
3 *18:14 *104:A3 1.6 
*END

*D_NET *19 0.000696903
*CONN
*I *116:A I *D sky130_fd_sc_hd__and2_1
*I *117:B I *D sky130_fd_sc_hd__xnor2_1
*I *103:Y O *D sky130_fd_sc_hd__nand2_1
*CAP
1 *116:A 0.000140207
2 *117:B 0
3 *103:Y 0.000114137
4 *19:12 0.000254344
5 *116:A *119:D 2.86975e-05
6 *19:12 *103:A 0.000112907
7 *117:A *116:A 4.66108e-05
*RES
1 *103:Y *19:12 7.43 
2 *19:12 *117:B 1.6 
3 *19:12 *116:A 3.775 
*END

*D_NET *20 0.00149968
*CONN
*I *110:A1 I *D sky130_fd_sc_hd__a21boi_1
*I *108:A I *D sky130_fd_sc_hd__xnor2_1
*I *104:X O *D sky130_fd_sc_hd__a31o_1
*CAP
1 *110:A1 0
2 *108:A 0.000124006
3 *104:X 0.000370432
4 *20:14 0.000494438
5 *108:A *21:10 4.77719e-05
6 *20:14 *107:A 5.5388e-05
7 *20:14 *110:B1_N 0.000105841
8 *20:14 *115:B 9.22251e-05
9 *20:14 *21:10 4.65703e-05
10 *20:14 *44:19 0.000121023
11 *20:14 *46:10 4.19797e-05
*RES
1 *104:X *20:14 12.995 
2 *20:14 *108:A 3.805 
3 *20:14 *110:A1 1.6 
*END

*D_NET *21 0.000711577
*CONN
*I *107:A I *D sky130_fd_sc_hd__nand2_1
*I *110:A2 I *D sky130_fd_sc_hd__a21boi_1
*I *105:X O *D sky130_fd_sc_hd__or2_1
*CAP
1 *107:A 9.3501e-05
2 *110:A2 0
3 *105:X 0.00018496
4 *21:10 0.000278461
5 *21:10 *105:A 4.9253e-06
6 *108:A *21:10 4.77719e-05
7 *20:14 *107:A 5.5388e-05
8 *20:14 *21:10 4.65703e-05
*RES
1 *105:X *21:10 6.39 
2 *21:10 *110:A2 3.6 
3 *21:10 *107:A 5.49 
*END

*D_NET *22 0.00071885
*CONN
*I *107:B I *D sky130_fd_sc_hd__nand2_1
*I *110:B1_N I *D sky130_fd_sc_hd__a21boi_1
*I *106:Y O *D sky130_fd_sc_hd__nand2_1
*CAP
1 *107:B 0.000102372
2 *110:B1_N 5.52374e-05
3 *106:Y 6.26341e-05
4 *22:6 0.000220243
5 *110:B1_N *105:A 0.000141606
6 *110:B1_N *46:10 3.09164e-05
7 *20:14 *110:B1_N 0.000105841
*RES
1 *106:Y *22:6 2.395 
2 *22:6 *110:B1_N 7.745 
3 *22:6 *107:B 3.1 
*END

*D_NET *23 0.000514303
*CONN
*I *108:B I *D sky130_fd_sc_hd__xnor2_1
*I *107:Y O *D sky130_fd_sc_hd__nand2_1
*CAP
1 *108:B 0.000257151
2 *107:Y 0.000257151
*RES
1 *107:Y *108:B 10.32 
*END

*D_NET *24 0.000612692
*CONN
*I *113:B1_N I *D sky130_fd_sc_hd__o21bai_1
*I *112:A I *D sky130_fd_sc_hd__nor2_1
*I *109:X O *D sky130_fd_sc_hd__and2_1
*CAP
1 *113:B1_N 0.000117396
2 *112:A 0.000135197
3 *109:X 0
4 *24:4 0.000252593
5 *112:A *111:A 2.93678e-05
6 *112:A *26:8 1.75875e-05
7 *112:A *47:8 6.05513e-05
8 *113:B1_N *114:B 0
9 *113:B1_N *25:10 0
*RES
1 *109:X *24:4 1.6 
2 *24:4 *112:A 4.15 
3 *24:4 *113:B1_N 6.98 
*END

*D_NET *25 0.000600096
*CONN
*I *114:A I *D sky130_fd_sc_hd__xnor2_1
*I *113:A1 I *D sky130_fd_sc_hd__o21bai_1
*I *110:Y O *D sky130_fd_sc_hd__a21boi_1
*CAP
1 *114:A 8.32844e-05
2 *113:A1 0
3 *110:Y 9.87197e-05
4 *25:10 0.000182004
5 *114:A *113:A2 8.35068e-05
6 *114:A *114:B 0.000122801
7 *25:10 *114:B 2.97802e-05
8 *113:B1_N *25:10 0
*RES
1 *110:Y *25:10 7.235 
2 *25:10 *113:A1 1.6 
3 *25:10 *114:A 3.43 
*END

*D_NET *26 0.000819666
*CONN
*I *112:B I *D sky130_fd_sc_hd__nor2_1
*I *113:A2 I *D sky130_fd_sc_hd__o21bai_1
*I *111:Y O *D sky130_fd_sc_hd__nor2_1
*CAP
1 *112:B 0
2 *113:A2 0.000217109
3 *111:Y 6.11259e-05
4 *26:8 0.000278235
5 *113:A2 *109:B 0
6 *113:A2 *111:B 9.09788e-06
7 *113:A2 *114:B 9.21008e-05
8 *113:A2 *137:A 9.53428e-06
9 *26:8 *111:A 5.13694e-05
10 *112:A *26:8 1.75875e-05
11 *114:A *113:A2 8.35068e-05
*RES
1 *111:Y *26:8 2.755 
2 *26:8 *113:A2 9.08 
3 *26:8 *112:B 1.6 
*END

*D_NET *27 0.000516548
*CONN
*I *114:B I *D sky130_fd_sc_hd__xnor2_1
*I *112:Y O *D sky130_fd_sc_hd__nor2_1
*CAP
1 *114:B 0.000135933
2 *112:Y 0.000135933
3 *113:A2 *114:B 9.21008e-05
4 *113:B1_N *114:B 0
5 *114:A *114:B 0.000122801
6 *25:10 *114:B 2.97802e-05
*RES
1 *112:Y *114:B 9.975 
*END

*D_NET *28 0.000604966
*CONN
*I *116:B I *D sky130_fd_sc_hd__and2_1
*I *115:X O *D sky130_fd_sc_hd__or2_1
*CAP
1 *116:B 0.000302483
2 *115:X 0.000302483
3 *116:B *103:A 0
*RES
1 *115:X *116:B 10.755 
*END

*D_NET *29 0.00223649
*CONN
*I *124:A I *D sky130_fd_sc_hd__clkbuf_16
*I *123:A I *D sky130_fd_sc_hd__clkbuf_16
*I *122:X O *D sky130_fd_sc_hd__clkbuf_16
*CAP
1 *124:A 0.00044872
2 *123:A 0.000562483
3 *122:X 0.00010704
4 *29:8 0.00111824
5 *123:A *120:CLK 0
6 *123:A *30:10 0
7 *124:A *118:CLK 0
8 *124:A *31:10 0
*RES
1 *122:X *29:8 4.74 
2 *29:8 *123:A 12.63 
3 *29:8 *124:A 10.845 
*END

*D_NET *30 0.00132275
*CONN
*I *120:CLK I *D sky130_fd_sc_hd__dfxtp_1
*I *121:CLK I *D sky130_fd_sc_hd__dfxtp_1
*I *123:X O *D sky130_fd_sc_hd__clkbuf_16
*CAP
1 *120:CLK 0.00012439
2 *121:CLK 0
3 *123:X 0.000536986
4 *30:10 0.000661376
5 sum_o[3] *30:10 0
6 *123:A *120:CLK 0
7 *123:A *30:10 0
*RES
1 *123:X *30:10 10.575 
2 *30:10 *121:CLK 3.6 
3 *30:10 *120:CLK 5.745 
*END

*D_NET *31 0.00138469
*CONN
*I *119:CLK I *D sky130_fd_sc_hd__dfxtp_1
*I *118:CLK I *D sky130_fd_sc_hd__dfxtp_1
*I *124:X O *D sky130_fd_sc_hd__clkbuf_16
*CAP
1 *119:CLK 0
2 *118:CLK 0.000112759
3 *124:X 0.000531868
4 *31:10 0.000644627
5 *118:CLK *118:D 9.5433e-05
6 *124:A *118:CLK 0
7 *124:A *31:10 0
*RES
1 *124:X *31:10 10.575 
2 *31:10 *118:CLK 5.745 
3 *31:10 *119:CLK 3.6 
*END

*D_NET *32 0.00111475
*CONN
*I *118:D I *D sky130_fd_sc_hd__dfxtp_1
*I *116:X O *D sky130_fd_sc_hd__and2_1
*CAP
1 *118:D 0.000334867
2 *116:X 0.000334867
3 *118:D *119:D 0.000349587
4 *118:CLK *118:D 9.5433e-05
*RES
1 *116:X *118:D 12.2137 
*END

*D_NET *33 0.00102228
*CONN
*I *119:D I *D sky130_fd_sc_hd__dfxtp_1
*I *117:Y O *D sky130_fd_sc_hd__xnor2_1
*CAP
1 *119:D 0.000322
2 *117:Y 0.000322
3 *116:A *119:D 2.86975e-05
4 *118:D *119:D 0.000349587
*RES
1 *117:Y *119:D 9.06875 
*END

*D_NET *34 0.000858093
*CONN
*I *120:D I *D sky130_fd_sc_hd__dfxtp_1
*I *108:Y O *D sky130_fd_sc_hd__xnor2_1
*CAP
1 *120:D 0.000429046
2 *108:Y 0.000429046
*RES
1 *108:Y *120:D 9.47 
*END

*D_NET *35 0.000912509
*CONN
*I *121:D I *D sky130_fd_sc_hd__dfxtp_1
*I *114:Y O *D sky130_fd_sc_hd__xnor2_1
*CAP
1 *121:D 0.000456254
2 *114:Y 0.000456254
*RES
1 *114:Y *121:D 9.41375 
*END

*D_NET *36 0.00176737
*CONN
*I *103:B I *D sky130_fd_sc_hd__nand2_1
*I *104:A2 I *D sky130_fd_sc_hd__a31o_1
*I *115:B I *D sky130_fd_sc_hd__or2_1
*I *125:X O *D sky130_fd_sc_hd__buf_1
*CAP
1 *103:B 0.000153387
2 *104:A2 0
3 *115:B 0.000219341
4 *125:X 0.000195815
5 *36:12 0.000423653
6 *36:8 0.000553514
7 *103:B *103:A 5.18317e-06
8 *36:12 *101:B 0
9 *36:12 *41:10 0
10 *36:12 *45:10 0
11 *104:B1 *115:B 5.53249e-06
12 *104:B1 *36:12 5.92269e-05
13 *129:A *115:B 0
14 *130:A *36:8 5.94962e-05
15 *20:14 *115:B 9.22251e-05
*RES
1 *125:X *36:8 4.48 
2 *36:8 *36:12 5.675 
3 *36:12 *115:B 6.84 
4 *36:12 *104:A2 3.6 
5 *36:8 *103:B 8.375 
*END

*D_NET *37 0.000809648
*CONN
*I *133:A I *D sky130_fd_sc_hd__buf_2
*I *118:Q O *D sky130_fd_sc_hd__dfxtp_1
*CAP
1 *133:A 0.000274439
2 *118:Q 0.000274439
3 *133:A *134:A 0.000135415
4 sum_o[0] *133:A 0.000106056
5 sum_o[1] *133:A 1.92979e-05
*RES
1 *118:Q *133:A 12.465 
*END

*D_NET *38 0.000300606
*CONN
*I *134:A I *D sky130_fd_sc_hd__buf_2
*I *119:Q O *D sky130_fd_sc_hd__dfxtp_1
*CAP
1 *134:A 6.32688e-05
2 *119:Q 6.32688e-05
3 sum_o[0] *134:A 3.86529e-05
4 *133:A *134:A 0.000135415
*RES
1 *119:Q *134:A 8.835 
*END

*D_NET *39 0.00047853
*CONN
*I *135:A I *D sky130_fd_sc_hd__buf_2
*I *120:Q O *D sky130_fd_sc_hd__dfxtp_1
*CAP
1 *135:A 0.000170267
2 *120:Q 0.000170267
3 sum_o[2] *135:A 0.000137996
*RES
1 *120:Q *135:A 10.62 
*END

*D_NET *40 0.000824209
*CONN
*I *136:A I *D sky130_fd_sc_hd__buf_2
*I *121:Q O *D sky130_fd_sc_hd__dfxtp_1
*CAP
1 *136:A 0.000412105
2 *121:Q 0.000412105
*RES
1 *121:Q *136:A 9.035 
*END

*D_NET *41 0.000833065
*CONN
*I *101:B I *D sky130_fd_sc_hd__and2_1
*I *102:B I *D sky130_fd_sc_hd__xor2_1
*I *126:X O *D sky130_fd_sc_hd__clkbuf_1
*CAP
1 *101:B 0.000179172
2 *102:B 0
3 *126:X 0.000114509
4 *41:10 0.000293681
5 *101:B *101:A 0.000118861
6 *101:B *102:A 8.49205e-05
7 *101:B *45:10 1.52184e-05
8 *126:A *41:10 0
9 *18:14 *41:10 2.67022e-05
10 *36:12 *101:B 0
11 *36:12 *41:10 0
*RES
1 *126:X *41:10 5.43 
2 *41:10 *102:B 3.6 
3 *41:10 *101:B 6.75 
*END

*D_NET *42 0.000326094
*CONN
*I *106:B I *D sky130_fd_sc_hd__nand2_1
*I *105:B I *D sky130_fd_sc_hd__or2_1
*I *127:X O *D sky130_fd_sc_hd__clkbuf_1
*CAP
1 *106:B 9.01693e-05
2 *105:B 7.28778e-05
3 *127:X 0
4 *42:4 0.000163047
5 *105:B *105:A 0
6 *127:A *105:B 0
*RES
1 *127:X *42:4 1.6 
2 *42:4 *105:B 6.725 
3 *42:4 *106:B 3.01 
*END

*D_NET *43 0.0011164
*CONN
*I *109:B I *D sky130_fd_sc_hd__and2_1
*I *111:B I *D sky130_fd_sc_hd__nor2_1
*I *128:X O *D sky130_fd_sc_hd__clkbuf_1
*CAP
1 *109:B 5.72775e-05
2 *111:B 0.000212616
3 *128:X 0.000197674
4 *43:10 0.000467568
5 *111:B *111:A 8.55751e-05
6 *111:B *47:8 8.65961e-05
7 *113:A2 *109:B 0
8 *113:A2 *111:B 9.09788e-06
*RES
1 *128:X *43:10 5.955 
2 *43:10 *111:B 10.645 
3 *43:10 *109:B 4.47 
*END

*D_NET *44 0.00141862
*CONN
*I *103:A I *D sky130_fd_sc_hd__nand2_1
*I *115:A I *D sky130_fd_sc_hd__or2_1
*I *104:A1 I *D sky130_fd_sc_hd__a31o_1
*I *129:X O *D sky130_fd_sc_hd__buf_1
*CAP
1 *103:A 0.000168041
2 *115:A 0.000101679
3 *104:A1 1.88809e-05
4 *129:X 0.00011074
5 *44:19 0.000349537
6 *44:8 0.000209438
7 *103:B *103:A 5.18317e-06
8 *116:B *103:A 0
9 *117:A *104:A1 5.4155e-06
10 *117:A *44:19 0.000159156
11 *18:14 *44:8 2.66586e-05
12 *18:14 *44:19 2.99629e-05
13 *19:12 *103:A 0.000112907
14 *20:14 *44:19 0.000121023
*RES
1 *129:X *44:8 3.1 
2 *44:8 *104:A1 1.96 
3 *44:8 *44:19 4.175 
4 *44:19 *115:A 5.1075 
5 *44:19 *103:A 7.1325 
*END

*D_NET *45 0.000804734
*CONN
*I *101:A I *D sky130_fd_sc_hd__and2_1
*I *102:A I *D sky130_fd_sc_hd__xor2_1
*I *130:X O *D sky130_fd_sc_hd__clkbuf_1
*CAP
1 *101:A 0.000144252
2 *102:A 6.1339e-05
3 *130:X 8.72761e-05
4 *45:10 0.000292867
5 *101:B *101:A 0.000118861
6 *101:B *102:A 8.49205e-05
7 *101:B *45:10 1.52184e-05
8 *36:12 *45:10 0
*RES
1 *130:X *45:10 6.98 
2 *45:10 *102:A 2.74 
3 *45:10 *101:A 4.24 
*END

*D_NET *46 0.000905354
*CONN
*I *106:A I *D sky130_fd_sc_hd__nand2_1
*I *105:A I *D sky130_fd_sc_hd__or2_1
*I *131:X O *D sky130_fd_sc_hd__clkbuf_1
*CAP
1 *106:A 0
2 *105:A 0.000123323
3 *131:X 0.000219641
4 *46:10 0.000342963
5 *105:B *105:A 0
6 *110:B1_N *105:A 0.000141606
7 *110:B1_N *46:10 3.09164e-05
8 *20:14 *46:10 4.19797e-05
9 *21:10 *105:A 4.9253e-06
*RES
1 *131:X *46:10 6.72 
2 *46:10 *105:A 6.03 
3 *46:10 *106:A 3.6 
*END

*D_NET *47 0.000788359
*CONN
*I *111:A I *D sky130_fd_sc_hd__nor2_1
*I *109:A I *D sky130_fd_sc_hd__and2_1
*I *132:X O *D sky130_fd_sc_hd__clkbuf_1
*CAP
1 *111:A 0.000108819
2 *109:A 0
3 *132:X 0.000128631
4 *47:8 0.00023745
5 *111:B *111:A 8.55751e-05
6 *111:B *47:8 8.65961e-05
7 *112:A *111:A 2.93678e-05
8 *112:A *47:8 6.05513e-05
9 *26:8 *111:A 5.13694e-05
*RES
1 *132:X *47:8 4.135 
2 *47:8 *109:A 1.6 
3 *47:8 *111:A 4.135 
*END

*D_NET *48 0.000254609
*CONN
*I *137:A I *D sky130_fd_sc_hd__buf_2
*I *113:Y O *D sky130_fd_sc_hd__o21bai_1
*CAP
1 *137:A 0.000122537
2 *113:Y 0.000122537
3 *113:A2 *137:A 9.53428e-06
*RES
1 *113:Y *137:A 5.06 
*END
