*SPEF "ieee 1481-1999"
*DESIGN "rcAdder"
*DATE "01:22:08 Friday February 28, 2025"
*VENDOR "The OpenROAD Project"
*PROGRAM "OpenROAD"
*VERSION "v2.0-16235-gedf00dff9"
*DESIGN_FLOW "NAME_SCOPE LOCAL" "PIN_CAP NONE"
*DIVIDER /
*DELIMITER :
*BUS_DELIMITER []
*T_UNIT 1 NS
*C_UNIT 1 PF
*R_UNIT 1 OHM
*L_UNIT 1 HENRY

*NAME_MAP
*3 a_i[0]
*4 a_i[10]
*5 a_i[11]
*6 a_i[12]
*7 a_i[13]
*8 a_i[14]
*9 a_i[15]
*10 a_i[1]
*11 a_i[2]
*12 a_i[3]
*13 a_i[4]
*14 a_i[5]
*15 a_i[6]
*16 a_i[7]
*17 a_i[8]
*18 a_i[9]
*19 b_i[0]
*20 b_i[10]
*21 b_i[11]
*22 b_i[12]
*23 b_i[13]
*24 b_i[14]
*25 b_i[15]
*26 b_i[1]
*27 b_i[2]
*28 b_i[3]
*29 b_i[4]
*30 b_i[5]
*31 b_i[6]
*32 b_i[7]
*33 b_i[8]
*34 b_i[9]
*35 carry_o
*36 clk
*37 sum_o[0]
*38 sum_o[10]
*39 sum_o[11]
*40 sum_o[12]
*41 sum_o[13]
*42 sum_o[14]
*43 sum_o[15]
*44 sum_o[1]
*45 sum_o[2]
*46 sum_o[3]
*47 sum_o[4]
*48 sum_o[5]
*49 sum_o[6]
*50 sum_o[7]
*51 sum_o[8]
*52 sum_o[9]
*53 _000_
*54 _001_
*55 _002_
*56 _003_
*57 _004_
*58 _005_
*59 _006_
*60 _007_
*61 _008_
*62 _009_
*63 _010_
*64 _011_
*65 _012_
*66 _013_
*67 _014_
*68 _015_
*69 _016_
*70 _017_
*71 _018_
*72 _019_
*73 _020_
*74 _021_
*75 _022_
*76 _023_
*77 _024_
*78 _025_
*79 _026_
*80 _027_
*81 _028_
*82 _029_
*83 _030_
*84 _031_
*85 _032_
*86 _033_
*87 _034_
*88 _035_
*89 _036_
*90 _037_
*91 _038_
*92 _039_
*93 _040_
*94 _041_
*95 _042_
*96 _043_
*97 _044_
*98 _045_
*99 _046_
*100 _047_
*101 _048_
*102 _049_
*103 _050_
*104 _051_
*105 _052_
*106 _053_
*107 _054_
*108 _055_
*109 _056_
*110 _057_
*111 _058_
*112 _059_
*113 clknet_0_clk
*114 clknet_1_0__leaf_clk
*115 clknet_1_1__leaf_clk
*116 fa0\.sum_l
*117 genblk1\[10\]\.fa0\.sum_o
*118 genblk1\[11\]\.fa0\.sum_o
*119 genblk1\[12\]\.fa0\.sum_o
*120 genblk1\[13\]\.fa0\.sum_o
*121 genblk1\[14\]\.fa0\.sum_o
*122 genblk1\[15\]\.fa0\.sum_o
*123 genblk1\[1\]\.fa0\.sum_o
*124 genblk1\[2\]\.fa0\.sum_o
*125 genblk1\[3\]\.fa0\.sum_o
*126 genblk1\[4\]\.fa0\.sum_o
*127 genblk1\[5\]\.fa0\.sum_o
*128 genblk1\[6\]\.fa0\.sum_o
*129 genblk1\[7\]\.fa0\.sum_o
*130 genblk1\[8\]\.fa0\.sum_o
*131 genblk1\[9\]\.fa0\.sum_o
*132 net1
*133 net10
*134 net11
*135 net12
*136 net13
*137 net14
*138 net15
*139 net16
*140 net17
*141 net18
*142 net19
*143 net2
*144 net20
*145 net21
*146 net22
*147 net23
*148 net24
*149 net25
*150 net26
*151 net27
*152 net28
*153 net29
*154 net3
*155 net30
*156 net31
*157 net32
*158 net33
*159 net34
*160 net35
*161 net36
*162 net37
*163 net38
*164 net39
*165 net4
*166 net40
*167 net41
*168 net42
*169 net43
*170 net44
*171 net45
*172 net46
*173 net47
*174 net48
*175 net49
*176 net5
*177 net6
*178 net7
*179 net8
*180 net9
*181 ANTENNA_clkbuf_0_clk_A
*182 ANTENNA_input10_A
*183 ANTENNA_input11_A
*184 ANTENNA_input12_A
*185 ANTENNA_input13_A
*186 ANTENNA_input14_A
*187 ANTENNA_input15_A
*188 ANTENNA_input16_A
*189 ANTENNA_input17_A
*190 ANTENNA_input18_A
*191 ANTENNA_input19_A
*192 ANTENNA_input1_A
*193 ANTENNA_input20_A
*194 ANTENNA_input21_A
*195 ANTENNA_input22_A
*196 ANTENNA_input23_A
*197 ANTENNA_input24_A
*198 ANTENNA_input25_A
*199 ANTENNA_input26_A
*200 ANTENNA_input27_A
*201 ANTENNA_input28_A
*202 ANTENNA_input29_A
*203 ANTENNA_input2_A
*204 ANTENNA_input30_A
*205 ANTENNA_input31_A
*206 ANTENNA_input32_A
*207 ANTENNA_input3_A
*208 ANTENNA_input4_A
*209 ANTENNA_input5_A
*210 ANTENNA_input6_A
*211 ANTENNA_input7_A
*212 ANTENNA_input8_A
*213 ANTENNA_input9_A
*214 FILLER_0_15
*215 FILLER_0_27
*216 FILLER_0_3
*217 FILLER_0_34
*218 FILLER_0_41
*219 FILLER_0_49
*220 FILLER_0_55
*221 FILLER_0_57
*222 FILLER_0_63
*223 FILLER_0_70
*224 FILLER_0_79
*225 FILLER_0_90
*226 FILLER_10_101
*227 FILLER_10_17
*228 FILLER_10_25
*229 FILLER_10_29
*230 FILLER_10_41
*231 FILLER_10_53
*232 FILLER_10_65
*233 FILLER_10_7
*234 FILLER_10_77
*235 FILLER_10_83
*236 FILLER_10_85
*237 FILLER_10_97
*238 FILLER_11_100
*239 FILLER_11_17
*240 FILLER_11_34
*241 FILLER_11_46
*242 FILLER_11_54
*243 FILLER_11_57
*244 FILLER_11_69
*245 FILLER_11_7
*246 FILLER_11_81
*247 FILLER_11_93
*248 FILLER_12_18
*249 FILLER_12_26
*250 FILLER_12_29
*251 FILLER_12_41
*252 FILLER_12_53
*253 FILLER_12_6
*254 FILLER_12_65
*255 FILLER_12_83
*256 FILLER_13_105
*257 FILLER_13_19
*258 FILLER_13_31
*259 FILLER_13_43
*260 FILLER_13_55
*261 FILLER_13_57
*262 FILLER_13_61
*263 FILLER_13_7
*264 FILLER_13_83
*265 FILLER_13_92
*266 FILLER_13_97
*267 FILLER_14_11
*268 FILLER_14_24
*269 FILLER_14_29
*270 FILLER_14_41
*271 FILLER_14_53
*272 FILLER_14_79
*273 FILLER_14_83
*274 FILLER_14_85
*275 FILLER_14_97
*276 FILLER_15_107
*277 FILLER_15_17
*278 FILLER_15_45
*279 FILLER_15_53
*280 FILLER_15_57
*281 FILLER_15_61
*282 FILLER_15_72
*283 FILLER_15_76
*284 FILLER_15_80
*285 FILLER_15_88
*286 FILLER_16_18
*287 FILLER_16_26
*288 FILLER_16_29
*289 FILLER_16_3
*290 FILLER_16_33
*291 FILLER_16_50
*292 FILLER_16_62
*293 FILLER_16_90
*294 FILLER_17_25
*295 FILLER_17_29
*296 FILLER_17_41
*297 FILLER_17_49
*298 FILLER_17_62
*299 FILLER_17_69
*300 FILLER_17_76
*301 FILLER_17_83
*302 FILLER_17_90
*303 FILLER_17_94
*304 FILLER_1_16
*305 FILLER_1_38
*306 FILLER_1_55
*307 FILLER_1_64
*308 FILLER_1_8
*309 FILLER_1_84
*310 FILLER_2_22
*311 FILLER_2_3
*312 FILLER_2_40
*313 FILLER_2_61
*314 FILLER_2_78
*315 FILLER_2_92
*316 FILLER_3_104
*317 FILLER_3_20
*318 FILLER_3_39
*319 FILLER_3_51
*320 FILLER_3_55
*321 FILLER_3_57
*322 FILLER_3_69
*323 FILLER_3_8
*324 FILLER_4_15
*325 FILLER_4_27
*326 FILLER_4_29
*327 FILLER_4_41
*328 FILLER_4_53
*329 FILLER_4_6
*330 FILLER_4_72
*331 FILLER_4_85
*332 FILLER_4_91
*333 FILLER_5_25
*334 FILLER_5_3
*335 FILLER_5_42
*336 FILLER_5_54
*337 FILLER_5_57
*338 FILLER_5_84
*339 FILLER_5_96
*340 FILLER_6_10
*341 FILLER_6_101
*342 FILLER_6_22
*343 FILLER_6_29
*344 FILLER_6_41
*345 FILLER_6_53
*346 FILLER_6_65
*347 FILLER_6_73
*348 FILLER_7_10
*349 FILLER_7_100
*350 FILLER_7_14
*351 FILLER_7_26
*352 FILLER_7_38
*353 FILLER_7_50
*354 FILLER_7_57
*355 FILLER_7_6
*356 FILLER_7_69
*357 FILLER_7_73
*358 FILLER_7_92
*359 FILLER_8_24
*360 FILLER_8_29
*361 FILLER_8_3
*362 FILLER_8_41
*363 FILLER_8_53
*364 FILLER_8_65
*365 FILLER_8_77
*366 FILLER_8_83
*367 FILLER_9_103
*368 FILLER_9_16
*369 FILLER_9_35
*370 FILLER_9_47
*371 FILLER_9_55
*372 FILLER_9_57
*373 FILLER_9_8
*374 FILLER_9_80
*375 FILLER_9_86
*376 PHY_EDGE_ROW_0_Left_18
*377 PHY_EDGE_ROW_0_Right_0
*378 PHY_EDGE_ROW_10_Left_28
*379 PHY_EDGE_ROW_10_Right_10
*380 PHY_EDGE_ROW_11_Left_29
*381 PHY_EDGE_ROW_11_Right_11
*382 PHY_EDGE_ROW_12_Left_30
*383 PHY_EDGE_ROW_12_Right_12
*384 PHY_EDGE_ROW_13_Left_31
*385 PHY_EDGE_ROW_13_Right_13
*386 PHY_EDGE_ROW_14_Left_32
*387 PHY_EDGE_ROW_14_Right_14
*388 PHY_EDGE_ROW_15_Left_33
*389 PHY_EDGE_ROW_15_Right_15
*390 PHY_EDGE_ROW_16_Left_34
*391 PHY_EDGE_ROW_16_Right_16
*392 PHY_EDGE_ROW_17_Left_35
*393 PHY_EDGE_ROW_17_Right_17
*394 PHY_EDGE_ROW_1_Left_19
*395 PHY_EDGE_ROW_1_Right_1
*396 PHY_EDGE_ROW_2_Left_20
*397 PHY_EDGE_ROW_2_Right_2
*398 PHY_EDGE_ROW_3_Left_21
*399 PHY_EDGE_ROW_3_Right_3
*400 PHY_EDGE_ROW_4_Left_22
*401 PHY_EDGE_ROW_4_Right_4
*402 PHY_EDGE_ROW_5_Left_23
*403 PHY_EDGE_ROW_5_Right_5
*404 PHY_EDGE_ROW_6_Left_24
*405 PHY_EDGE_ROW_6_Right_6
*406 PHY_EDGE_ROW_7_Left_25
*407 PHY_EDGE_ROW_7_Right_7
*408 PHY_EDGE_ROW_8_Left_26
*409 PHY_EDGE_ROW_8_Right_8
*410 PHY_EDGE_ROW_9_Left_27
*411 PHY_EDGE_ROW_9_Right_9
*412 TAP_TAPCELL_ROW_0_36
*413 TAP_TAPCELL_ROW_0_37
*414 TAP_TAPCELL_ROW_0_38
*415 TAP_TAPCELL_ROW_10_52
*416 TAP_TAPCELL_ROW_10_53
*417 TAP_TAPCELL_ROW_11_54
*418 TAP_TAPCELL_ROW_12_55
*419 TAP_TAPCELL_ROW_12_56
*420 TAP_TAPCELL_ROW_13_57
*421 TAP_TAPCELL_ROW_14_58
*422 TAP_TAPCELL_ROW_14_59
*423 TAP_TAPCELL_ROW_15_60
*424 TAP_TAPCELL_ROW_16_61
*425 TAP_TAPCELL_ROW_16_62
*426 TAP_TAPCELL_ROW_17_63
*427 TAP_TAPCELL_ROW_17_64
*428 TAP_TAPCELL_ROW_17_65
*429 TAP_TAPCELL_ROW_1_39
*430 TAP_TAPCELL_ROW_2_40
*431 TAP_TAPCELL_ROW_2_41
*432 TAP_TAPCELL_ROW_3_42
*433 TAP_TAPCELL_ROW_4_43
*434 TAP_TAPCELL_ROW_4_44
*435 TAP_TAPCELL_ROW_5_45
*436 TAP_TAPCELL_ROW_6_46
*437 TAP_TAPCELL_ROW_6_47
*438 TAP_TAPCELL_ROW_7_48
*439 TAP_TAPCELL_ROW_8_49
*440 TAP_TAPCELL_ROW_8_50
*441 TAP_TAPCELL_ROW_9_51
*442 _060_
*443 _061_
*444 _062_
*445 _063_
*446 _064_
*447 _065_
*448 _066_
*449 _067_
*450 _068_
*451 _069_
*452 _070_
*453 _071_
*454 _072_
*455 _073_
*456 _074_
*457 _075_
*458 _076_
*459 _077_
*460 _078_
*461 _079_
*462 _080_
*463 _081_
*464 _082_
*465 _083_
*466 _084_
*467 _085_
*468 _086_
*469 _087_
*470 _088_
*471 _089_
*472 _090_
*473 _091_
*474 _092_
*475 _093_
*476 _094_
*477 _095_
*478 _096_
*479 _097_
*480 _098_
*481 _099_
*482 _100_
*483 _101_
*484 _102_
*485 _103_
*486 _104_
*487 _105_
*488 _106_
*489 _107_
*490 _108_
*491 _109_
*492 _110_
*493 _111_
*494 _112_
*495 _113_
*496 _114_
*497 _115_
*498 _116_
*499 _117_
*500 _118_
*501 _119_
*502 _120_
*503 _121_
*504 _122_
*505 _123_
*506 _124_
*507 _125_
*508 _126_
*509 _127_
*510 _128_
*511 _129_
*512 _130_
*513 _131_
*514 _132_
*515 _133_
*516 _134_
*517 _135_
*518 _136_
*519 _137_
*520 _138_
*521 _139_
*522 _140_
*523 _141_
*524 _142_
*525 _143_
*526 _144_
*527 _145_
*528 _146_
*529 _147_
*530 _148_
*531 _149_
*532 _150_
*533 _151_
*534 _152_
*535 clkbuf_0_clk
*536 clkbuf_1_0__f_clk
*537 clkbuf_1_1__f_clk
*538 clkload0
*539 input1
*540 input10
*541 input11
*542 input12
*543 input13
*544 input14
*545 input15
*546 input16
*547 input17
*548 input18
*549 input19
*550 input2
*551 input20
*552 input21
*553 input22
*554 input23
*555 input24
*556 input25
*557 input26
*558 input27
*559 input28
*560 input29
*561 input3
*562 input30
*563 input31
*564 input32
*565 input4
*566 input5
*567 input6
*568 input7
*569 input8
*570 input9
*571 output33
*572 output34
*573 output35
*574 output36
*575 output37
*576 output38
*577 output39
*578 output40
*579 output41
*580 output42
*581 output43
*582 output44
*583 output45
*584 output46
*585 output47
*586 output48
*587 output49

*PORTS
a_i[0] I
a_i[10] I
a_i[11] I
a_i[12] I
a_i[13] I
a_i[14] I
a_i[15] I
a_i[1] I
a_i[2] I
a_i[3] I
a_i[4] I
a_i[5] I
a_i[6] I
a_i[7] I
a_i[8] I
a_i[9] I
b_i[0] I
b_i[10] I
b_i[11] I
b_i[12] I
b_i[13] I
b_i[14] I
b_i[15] I
b_i[1] I
b_i[2] I
b_i[3] I
b_i[4] I
b_i[5] I
b_i[6] I
b_i[7] I
b_i[8] I
b_i[9] I
carry_o O
clk I
sum_o[0] O
sum_o[10] O
sum_o[11] O
sum_o[12] O
sum_o[13] O
sum_o[14] O
sum_o[15] O
sum_o[1] O
sum_o[2] O
sum_o[3] O
sum_o[4] O
sum_o[5] O
sum_o[6] O
sum_o[7] O
sum_o[8] O
sum_o[9] O

*D_NET *3 0.00120007
*CONN
*P a_i[0] I
*I *192:DIODE I *D sky130_fd_sc_hd__diode_2
*I *539:A I *D sky130_fd_sc_hd__buf_1
*CAP
1 a_i[0] 0.000467471
2 *192:DIODE 0
3 *539:A 0.000113999
4 *3:7 0.00058147
5 *539:A *547:A 0
6 *539:A *132:10 3.71251e-05
7 *3:7 *19:7 0
*RES
1 a_i[0] *3:7 25.1086 
2 *3:7 *539:A 25.4236 
3 *3:7 *192:DIODE 23 
*END

*D_NET *4 0.000922391
*CONN
*P a_i[10] I
*I *203:DIODE I *D sky130_fd_sc_hd__diode_2
*I *550:A I *D sky130_fd_sc_hd__clkbuf_1
*CAP
1 a_i[10] 0.000314655
2 *203:DIODE 6.83964e-05
3 *550:A 0
4 *4:13 0.000383051
5 *203:DIODE *143:10 3.22879e-05
6 *4:13 *5:13 0
7 *4:13 *20:13 6.23473e-05
8 *4:13 *143:10 6.16542e-05
*RES
1 a_i[10] *4:13 26.7274 
2 *4:13 *550:A 23 
3 *4:13 *203:DIODE 24.5743 
*END

*D_NET *5 0.00118667
*CONN
*P a_i[11] I
*I *561:A I *D sky130_fd_sc_hd__clkbuf_1
*I *207:DIODE I *D sky130_fd_sc_hd__diode_2
*CAP
1 a_i[11] 0.000262237
2 *561:A 0
3 *207:DIODE 0.000181252
4 *5:13 0.000443489
5 *207:DIODE *492:A 5.67058e-05
6 *207:DIODE *492:B 0.000106087
7 *207:DIODE *493:B 2.4754e-05
8 *5:13 *492:A 0
9 *5:13 *20:13 5.99691e-05
10 *5:13 *21:11 4.6593e-05
11 *5:13 *154:19 5.58152e-06
12 *4:13 *5:13 0
*RES
1 a_i[11] *5:13 25.6709 
2 *5:13 *207:DIODE 26.9771 
3 *5:13 *561:A 23 
*END

*D_NET *6 0.00112866
*CONN
*P a_i[12] I
*I *565:A I *D sky130_fd_sc_hd__clkbuf_1
*I *208:DIODE I *D sky130_fd_sc_hd__diode_2
*CAP
1 a_i[12] 0.000159731
2 *565:A 8.48533e-05
3 *208:DIODE 0.000251497
4 *6:7 0.000496081
5 *208:DIODE *191:DIODE 5.07687e-05
6 *6:7 *21:11 3.91362e-05
7 *6:7 *22:13 4.6593e-05
*RES
1 a_i[12] *6:7 8.672 
2 *6:7 *208:DIODE 41.7804 
3 *6:7 *565:A 39.2946 
*END

*D_NET *7 0.00104673
*CONN
*P a_i[13] I
*I *566:A I *D sky130_fd_sc_hd__clkbuf_1
*I *209:DIODE I *D sky130_fd_sc_hd__diode_2
*CAP
1 a_i[13] 0.000221804
2 *566:A 0.000169141
3 *209:DIODE 0
4 *7:9 0.000390945
5 *566:A *24:13 5.41288e-05
6 *566:A *176:10 5.95575e-05
7 *7:9 *8:9 0
8 *7:9 *23:9 6.91028e-05
9 *7:9 *24:13 7.1481e-05
10 *7:9 *176:10 1.05658e-05
*RES
1 a_i[13] *7:9 9.25067 
2 *7:9 *209:DIODE 38 
3 *7:9 *566:A 41.3557 
*END

*D_NET *8 0.00285086
*CONN
*P a_i[14] I
*I *567:A I *D sky130_fd_sc_hd__clkbuf_1
*I *210:DIODE I *D sky130_fd_sc_hd__diode_2
*CAP
1 a_i[14] 0.000575428
2 *567:A 8.64758e-05
3 *210:DIODE 0.000383778
4 *8:9 0.00104568
5 *210:DIODE *196:DIODE 4.91297e-05
6 *210:DIODE *568:A 2.30292e-05
7 *210:DIODE *69:10 0.000140259
8 *210:DIODE *178:8 4.79641e-05
9 *567:A *25:13 1.79749e-05
10 *567:A *69:10 7.7501e-06
11 *567:A *147:10 5.50106e-05
12 *567:A *158:10 0
13 *567:A *178:8 5.50106e-05
14 *567:A *178:22 1.16607e-05
15 *8:9 *24:13 6.91028e-05
16 *8:9 *25:13 0.000127644
17 *8:9 *69:10 4.83838e-05
18 *8:9 *71:10 7.44517e-05
19 *8:9 *177:10 0
20 *8:9 *178:22 3.21223e-05
21 *7:9 *8:9 0
*RES
1 a_i[14] *8:9 12.583 
2 *8:9 *210:DIODE 43.8621 
3 *8:9 *567:A 39.8229 
*END

*D_NET *9 0.00200881
*CONN
*P a_i[15] I
*I *211:DIODE I *D sky130_fd_sc_hd__diode_2
*I *568:A I *D sky130_fd_sc_hd__clkbuf_1
*CAP
1 a_i[15] 0.000876456
2 *211:DIODE 0
3 *568:A 6.80815e-05
4 *9:9 0.000944538
5 *568:A *196:DIODE 5.50049e-05
6 *9:9 carry_o 4.17018e-05
7 *9:9 *25:13 0
8 *210:DIODE *568:A 2.30292e-05
*RES
1 a_i[15] *9:9 16.0871 
2 *9:9 *568:A 39.4707 
3 *9:9 *211:DIODE 38 
*END

*D_NET *10 0.00119541
*CONN
*P a_i[1] I
*I *212:DIODE I *D sky130_fd_sc_hd__diode_2
*I *569:A I *D sky130_fd_sc_hd__clkbuf_1
*CAP
1 a_i[1] 0.000467471
2 *212:DIODE 0
3 *569:A 0.000114089
4 *10:7 0.00058156
5 *569:A *547:A 0
6 *569:A *555:A 0
7 *569:A *179:10 3.22879e-05
8 *10:7 *19:7 0
9 *10:7 *26:7 0
*RES
1 a_i[1] *10:7 25.1086 
2 *10:7 *569:A 25.4236 
3 *10:7 *212:DIODE 23 
*END

*D_NET *11 0.00109819
*CONN
*P a_i[2] I
*I *213:DIODE I *D sky130_fd_sc_hd__diode_2
*I *570:A I *D sky130_fd_sc_hd__clkbuf_1
*CAP
1 a_i[2] 0.000475526
2 *213:DIODE 0
3 *570:A 7.35678e-05
4 *11:7 0.000549094
5 *570:A *555:A 0
6 *11:7 sum_o[15] 0
7 *11:7 *26:7 0
*RES
1 a_i[2] *11:7 25.1086 
2 *11:7 *570:A 24.4707 
3 *11:7 *213:DIODE 23 
*END

*D_NET *12 0.00163788
*CONN
*P a_i[3] I
*I *540:A I *D sky130_fd_sc_hd__clkbuf_1
*I *182:DIODE I *D sky130_fd_sc_hd__diode_2
*CAP
1 a_i[3] 0.000691143
2 *540:A 0
3 *182:DIODE 8.80727e-05
4 *12:11 0.000779216
5 *182:DIODE *133:10 1.94693e-05
6 *12:11 sum_o[0] 0
7 *12:11 *36:11 5.99754e-05
*RES
1 a_i[3] *12:11 31.0186 
2 *12:11 *182:DIODE 24.5743 
3 *12:11 *540:A 23 
*END

*D_NET *13 0.00179947
*CONN
*P a_i[4] I
*I *541:A I *D sky130_fd_sc_hd__clkbuf_1
*I *183:DIODE I *D sky130_fd_sc_hd__diode_2
*CAP
1 a_i[4] 0.000510601
2 *541:A 0
3 *183:DIODE 0.000233832
4 *13:11 0.000744433
5 *183:DIODE *184:DIODE 0.000141954
6 *183:DIODE *135:8 2.65879e-05
7 *13:11 *14:11 0.000142066
8 *13:11 *173:8 0
*RES
1 a_i[4] *13:11 29.2665 
2 *13:11 *183:DIODE 27.4536 
3 *13:11 *541:A 23 
*END

*D_NET *14 0.00129097
*CONN
*P a_i[5] I
*I *542:A I *D sky130_fd_sc_hd__clkbuf_1
*I *184:DIODE I *D sky130_fd_sc_hd__diode_2
*CAP
1 a_i[5] 0.000413111
2 *542:A 0
3 *184:DIODE 4.76757e-05
4 *14:11 0.000460787
5 *184:DIODE *135:8 2.30292e-05
6 *14:11 sum_o[7] 6.23473e-05
7 *14:11 *15:11 0
8 *183:DIODE *184:DIODE 0.000141954
9 *13:11 *14:11 0.000142066
*RES
1 a_i[5] *14:11 26.0027 
2 *14:11 *184:DIODE 24.5743 
3 *14:11 *542:A 23 
*END

*D_NET *15 0.000790005
*CONN
*P a_i[6] I
*I *543:A I *D sky130_fd_sc_hd__clkbuf_1
*I *185:DIODE I *D sky130_fd_sc_hd__diode_2
*CAP
1 a_i[6] 0.000147966
2 *543:A 0
3 *185:DIODE 9.59938e-05
4 *15:11 0.00024396
5 *185:DIODE *202:DIODE 3.17516e-05
6 *185:DIODE *467:B 0.000143655
7 *15:11 sum_o[7] 5.51984e-05
8 *15:11 *31:9 7.1481e-05
9 *15:11 *134:12 0
10 *14:11 *15:11 0
*RES
1 a_i[6] *15:11 23.9931 
2 *15:11 *185:DIODE 25.5271 
3 *15:11 *543:A 23 
*END

*D_NET *16 0.00102817
*CONN
*P a_i[7] I
*I *544:A I *D sky130_fd_sc_hd__clkbuf_1
*I *186:DIODE I *D sky130_fd_sc_hd__diode_2
*CAP
1 a_i[7] 0.00038299
2 *544:A 0.000119579
3 *186:DIODE 0
4 *16:7 0.000502569
5 *544:A *137:8 2.30292e-05
6 *16:7 sum_o[8] 0
*RES
1 a_i[7] *16:7 22.9957 
2 *16:7 *186:DIODE 23 
3 *16:7 *544:A 25.4236 
*END

*D_NET *17 0.000912689
*CONN
*P a_i[8] I
*I *545:A I *D sky130_fd_sc_hd__clkbuf_1
*I *187:DIODE I *D sky130_fd_sc_hd__diode_2
*CAP
1 a_i[8] 0.000376891
2 *545:A 6.85076e-05
3 *187:DIODE 0
4 *17:7 0.000445398
5 *545:A *564:A 0
6 *545:A *105:10 2.18926e-05
7 *17:7 *34:7 0
*RES
1 a_i[8] *17:7 22.9957 
2 *17:7 *187:DIODE 23 
3 *17:7 *545:A 24.4707 
*END

*D_NET *18 0.00116347
*CONN
*P a_i[9] I
*I *546:A I *D sky130_fd_sc_hd__clkbuf_1
*I *188:DIODE I *D sky130_fd_sc_hd__diode_2
*CAP
1 a_i[9] 0.000426654
2 *546:A 0
3 *188:DIODE 3.48623e-05
4 *18:7 0.000461516
5 *188:DIODE *482:B 9.84794e-05
6 *188:DIODE *157:18 0.000141954
7 *18:7 *34:7 0
8 *18:7 *157:18 0
*RES
1 a_i[9] *18:7 23.7 
2 *18:7 *188:DIODE 24.5743 
3 *18:7 *546:A 23 
*END

*D_NET *19 0.00108208
*CONN
*P b_i[0] I
*I *189:DIODE I *D sky130_fd_sc_hd__diode_2
*I *547:A I *D sky130_fd_sc_hd__buf_1
*CAP
1 b_i[0] 0.000467471
2 *189:DIODE 0
3 *547:A 7.35678e-05
4 *19:7 0.000541039
5 *539:A *547:A 0
6 *569:A *547:A 0
7 *3:7 *19:7 0
8 *10:7 *19:7 0
*RES
1 b_i[0] *19:7 25.1086 
2 *19:7 *547:A 24.4707 
3 *19:7 *189:DIODE 23 
*END

*D_NET *20 0.000708047
*CONN
*P b_i[10] I
*I *190:DIODE I *D sky130_fd_sc_hd__diode_2
*I *548:A I *D sky130_fd_sc_hd__clkbuf_1
*CAP
1 b_i[10] 0.000190106
2 *190:DIODE 7.52543e-05
3 *548:A 0
4 *20:13 0.00026536
5 *190:DIODE *109:12 5.50106e-05
6 *4:13 *20:13 6.23473e-05
7 *5:13 *20:13 5.99691e-05
*RES
1 b_i[10] *20:13 25.0051 
2 *20:13 *548:A 23 
3 *20:13 *190:DIODE 24.5743 
*END

*D_NET *21 0.000896736
*CONN
*P b_i[11] I
*I *191:DIODE I *D sky130_fd_sc_hd__diode_2
*I *549:A I *D sky130_fd_sc_hd__clkbuf_1
*CAP
1 b_i[11] 0.000250557
2 *191:DIODE 0.000102285
3 *549:A 0
4 *21:11 0.000352842
5 *191:DIODE *142:10 5.45541e-05
6 *208:DIODE *191:DIODE 5.07687e-05
7 *5:13 *21:11 4.6593e-05
8 *6:7 *21:11 3.91362e-05
*RES
1 b_i[11] *21:11 24.7832 
2 *21:11 *549:A 23 
3 *21:11 *191:DIODE 25.5271 
*END

*D_NET *22 0.000970937
*CONN
*P b_i[12] I
*I *193:DIODE I *D sky130_fd_sc_hd__diode_2
*I *551:A I *D sky130_fd_sc_hd__clkbuf_1
*CAP
1 b_i[12] 0.000344641
2 *193:DIODE 8.52185e-05
3 *551:A 0
4 *22:13 0.000429859
5 *193:DIODE *162:10 7.53384e-06
6 *22:13 sum_o[12] 2.12457e-05
7 *22:13 sum_o[13] 0
8 *22:13 *40:14 0
9 *22:13 *144:12 3.5846e-05
10 *6:7 *22:13 4.6593e-05
*RES
1 b_i[12] *22:13 27.0795 
2 *22:13 *551:A 23 
3 *22:13 *193:DIODE 24.5743 
*END

*D_NET *23 0.000893593
*CONN
*P b_i[13] I
*I *194:DIODE I *D sky130_fd_sc_hd__diode_2
*I *552:A I *D sky130_fd_sc_hd__clkbuf_1
*CAP
1 b_i[13] 0.00015003
2 *194:DIODE 0.000191517
3 *552:A 3.8084e-05
4 *23:9 0.000379631
5 *194:DIODE *501:B 0
6 *194:DIODE *176:10 0
7 *23:9 sum_o[13] 6.52282e-05
8 *7:9 *23:9 6.91028e-05
*RES
1 b_i[13] *23:9 8.99307 
2 *23:9 *552:A 38.6214 
3 *23:9 *194:DIODE 40.8793 
*END

*D_NET *24 0.00103664
*CONN
*P b_i[14] I
*I *195:DIODE I *D sky130_fd_sc_hd__diode_2
*I *553:A I *D sky130_fd_sc_hd__clkbuf_1
*CAP
1 b_i[14] 0.000306393
2 *195:DIODE 3.2623e-05
3 *553:A 4.01156e-05
4 *24:13 0.000379131
5 *553:A *64:16 0
6 *24:13 *146:10 6.22874e-05
7 *24:13 *176:10 2.13733e-05
8 *566:A *24:13 5.41288e-05
9 *7:9 *24:13 7.1481e-05
10 *8:9 *24:13 6.91028e-05
*RES
1 b_i[14] *24:13 27.3488 
2 *24:13 *553:A 23.8493 
3 *24:13 *195:DIODE 23.6214 
*END

*D_NET *25 0.00197806
*CONN
*P b_i[15] I
*I *196:DIODE I *D sky130_fd_sc_hd__diode_2
*I *554:A I *D sky130_fd_sc_hd__clkbuf_1
*CAP
1 b_i[15] 0.000609947
2 *196:DIODE 0.000161376
3 *554:A 0
4 *25:13 0.000771323
5 *196:DIODE *512:B 0
6 *196:DIODE *147:10 5.90675e-06
7 *196:DIODE *178:8 2.4754e-05
8 *25:13 carry_o 4.40799e-05
9 *25:13 *147:10 1.24376e-05
10 *25:13 *178:8 9.84851e-05
11 *210:DIODE *196:DIODE 4.91297e-05
12 *567:A *25:13 1.79749e-05
13 *568:A *196:DIODE 5.50049e-05
14 *8:9 *25:13 0.000127644
15 *9:9 *25:13 0
*RES
1 b_i[15] *25:13 26.3876 
2 *25:13 *554:A 23 
3 *25:13 *196:DIODE 26.5007 
*END

*D_NET *26 0.00110326
*CONN
*P b_i[1] I
*I *197:DIODE I *D sky130_fd_sc_hd__diode_2
*I *555:A I *D sky130_fd_sc_hd__clkbuf_1
*CAP
1 b_i[1] 0.000467471
2 *197:DIODE 0
3 *555:A 7.92137e-05
4 *26:7 0.000546685
5 *555:A *179:10 6.17437e-06
6 *555:A *180:14 3.7122e-06
7 *569:A *555:A 0
8 *570:A *555:A 0
9 *10:7 *26:7 0
10 *11:7 *26:7 0
*RES
1 b_i[1] *26:7 25.1086 
2 *26:7 *555:A 24.4707 
3 *26:7 *197:DIODE 23 
*END

*D_NET *27 0.000979854
*CONN
*P b_i[2] I
*I *556:A I *D sky130_fd_sc_hd__clkbuf_1
*I *198:DIODE I *D sky130_fd_sc_hd__diode_2
*CAP
1 b_i[2] 0.000339958
2 *556:A 0
3 *198:DIODE 7.67253e-05
4 *27:11 0.000416684
5 *198:DIODE *149:10 3.22879e-05
6 *27:11 sum_o[0] 0
7 *27:11 sum_o[1] 5.32136e-05
8 *27:11 sum_o[2] 5.08417e-05
9 *27:11 sum_o[3] 0
10 *27:11 *580:A 1.01436e-05
11 *27:11 *36:11 0
12 *27:11 *133:10 0
*RES
1 b_i[2] *27:11 25.393 
2 *27:11 *198:DIODE 24.5743 
3 *27:11 *556:A 23 
*END

*D_NET *28 0.000919979
*CONN
*P b_i[3] I
*I *557:A I *D sky130_fd_sc_hd__clkbuf_1
*I *199:DIODE I *D sky130_fd_sc_hd__diode_2
*CAP
1 b_i[3] 0.000240604
2 *557:A 7.11328e-05
3 *199:DIODE 7.13184e-05
4 *28:7 0.000383055
5 *199:DIODE *36:11 0
6 *557:A *36:11 0
7 *557:A *169:8 0
8 *28:7 sum_o[3] 7.61264e-05
9 *28:7 sum_o[5] 7.77421e-05
*RES
1 b_i[3] *28:7 9.01547 
2 *28:7 *199:DIODE 39.0254 
3 *28:7 *557:A 39.3775 
*END

*D_NET *29 0.000723337
*CONN
*P b_i[4] I
*I *558:A I *D sky130_fd_sc_hd__clkbuf_1
*I *200:DIODE I *D sky130_fd_sc_hd__diode_2
*CAP
1 b_i[4] 0.000229455
2 *558:A 0
3 *200:DIODE 6.9911e-05
4 *29:13 0.000299366
5 *200:DIODE *151:10 5.82853e-05
6 *29:13 sum_o[6] 3.67855e-05
7 *29:13 *30:11 2.95345e-05
*RES
1 b_i[4] *29:13 25.6235 
2 *29:13 *200:DIODE 24.5743 
3 *29:13 *558:A 23 
*END

*D_NET *30 0.00065567
*CONN
*P b_i[5] I
*I *559:A I *D sky130_fd_sc_hd__clkbuf_1
*I *201:DIODE I *D sky130_fd_sc_hd__diode_2
*CAP
1 b_i[5] 0.000203353
2 *559:A 0
3 *201:DIODE 7.76394e-05
4 *30:11 0.000280993
5 *201:DIODE *152:8 2.10502e-05
6 *30:11 sum_o[4] 4.30994e-05
7 *29:13 *30:11 2.95345e-05
*RES
1 b_i[5] *30:11 24.3452 
2 *30:11 *201:DIODE 24.5743 
3 *30:11 *559:A 23 
*END

*D_NET *31 0.000969804
*CONN
*P b_i[6] I
*I *560:A I *D sky130_fd_sc_hd__clkbuf_1
*I *202:DIODE I *D sky130_fd_sc_hd__diode_2
*CAP
1 b_i[6] 0.000128992
2 *560:A 0
3 *202:DIODE 0.000212267
4 *31:9 0.000341259
5 *202:DIODE *467:B 3.22879e-05
6 *202:DIODE *136:23 8.26569e-05
7 *31:9 sum_o[6] 6.91091e-05
8 *31:9 *134:12 0
9 *185:DIODE *202:DIODE 3.17516e-05
10 *15:11 *31:9 7.1481e-05
*RES
1 b_i[6] *31:9 8.99307 
2 *31:9 *202:DIODE 41.8321 
3 *31:9 *560:A 38 
*END

*D_NET *32 0.0011177
*CONN
*P b_i[7] I
*I *562:A I *D sky130_fd_sc_hd__clkbuf_1
*I *204:DIODE I *D sky130_fd_sc_hd__diode_2
*CAP
1 b_i[7] 0.000378503
2 *562:A 0.000140842
3 *204:DIODE 0
4 *32:7 0.000519345
5 *562:A *472:A 4.37033e-05
6 *562:A *472:B 3.53115e-05
7 *32:7 sum_o[10] 0
8 *32:7 sum_o[8] 0
*RES
1 b_i[7] *32:7 22.9957 
2 *32:7 *204:DIODE 23 
3 *32:7 *562:A 26.045 
*END

*D_NET *33 0.00103232
*CONN
*P b_i[8] I
*I *563:A I *D sky130_fd_sc_hd__clkbuf_1
*I *205:DIODE I *D sky130_fd_sc_hd__diode_2
*CAP
1 b_i[8] 0.000385064
2 *563:A 0.000119579
3 *205:DIODE 0
4 *33:7 0.000504643
5 *563:A *156:10 2.30292e-05
6 *33:7 sum_o[9] 0
*RES
1 b_i[8] *33:7 22.9957 
2 *33:7 *205:DIODE 23 
3 *33:7 *563:A 25.4236 
*END

*D_NET *34 0.0010408
*CONN
*P b_i[9] I
*I *564:A I *D sky130_fd_sc_hd__clkbuf_1
*I *206:DIODE I *D sky130_fd_sc_hd__diode_2
*CAP
1 b_i[9] 0.000379407
2 *564:A 0.000108638
3 *206:DIODE 0
4 *34:7 0.000488044
5 *564:A *105:10 3.24224e-05
6 *564:A *157:8 3.22879e-05
7 *564:A *157:18 0
8 *545:A *564:A 0
9 *17:7 *34:7 0
10 *18:7 *34:7 0
*RES
1 b_i[9] *34:7 22.9957 
2 *34:7 *206:DIODE 23 
3 *34:7 *564:A 25.4236 
*END

*D_NET *35 0.00086406
*CONN
*P carry_o O
*I *571:X O *D sky130_fd_sc_hd__buf_2
*CAP
1 carry_o 7.33122e-05
2 *571:X 0.000313971
3 *35:10 0.000387283
4 *35:10 *147:20 3.7122e-06
5 *9:9 carry_o 4.17018e-05
6 *25:13 carry_o 4.40799e-05
*RES
1 *571:X *35:10 42.9611 
2 *35:10 carry_o 8.4144 
*END

*D_NET *36 0.00585286
*CONN
*P clk I
*I *181:DIODE I *D sky130_fd_sc_hd__diode_2
*I *535:A I *D sky130_fd_sc_hd__clkbuf_16
*CAP
1 clk 0.00134693
2 *181:DIODE 0
3 *535:A 0.00010546
4 *36:13 0.00114344
5 *36:11 0.00238492
6 *36:11 sum_o[0] 5.99754e-05
7 *36:11 sum_o[2] 0.000127972
8 *36:11 sum_o[3] 1.10864e-05
9 *36:11 sum_o[5] 3.17098e-05
10 *36:11 *452:B 0
11 *36:11 *580:A 0
12 *36:11 *44:10 0.000238512
13 *36:11 *133:10 0
14 *36:11 *167:10 0
15 *36:11 *169:8 0.00014411
16 *36:11 *171:8 0
17 *36:13 sum_o[4] 1.33439e-05
18 *36:13 *524:CLK 0.000185428
19 *199:DIODE *36:11 0
20 *557:A *36:11 0
21 *12:11 *36:11 5.99754e-05
22 *27:11 *36:11 0
*RES
1 clk *36:11 48.5572 
2 *36:11 *36:13 13.9614 
3 *36:13 *535:A 24.595 
4 *36:13 *181:DIODE 23 
*END

*D_NET *37 0.000814525
*CONN
*P sum_o[0] O
*I *572:X O *D sky130_fd_sc_hd__buf_2
*CAP
1 sum_o[0] 0.00034759
2 *572:X 0.00034759
3 sum_o[0] sum_o[1] 4.88045e-05
4 sum_o[0] *159:10 1.05658e-05
5 *12:11 sum_o[0] 0
6 *27:11 sum_o[0] 0
7 *36:11 sum_o[0] 5.99754e-05
*RES
1 *572:X sum_o[0] 47.5083 
*END

*D_NET *38 0.00100658
*CONN
*P sum_o[10] O
*I *573:X O *D sky130_fd_sc_hd__buf_2
*CAP
1 sum_o[10] 0.000503292
2 *573:X 0.000503292
3 sum_o[10] sum_o[9] 0
4 *32:7 sum_o[10] 0
*RES
1 *573:X sum_o[10] 47.57 
*END

*D_NET *39 0.000995659
*CONN
*P sum_o[11] O
*I *574:X O *D sky130_fd_sc_hd__buf_2
*CAP
1 sum_o[11] 0.000494742
2 *574:X 0.000494742
3 sum_o[11] *161:14 6.17437e-06
*RES
1 *574:X sum_o[11] 47.86 
*END

*D_NET *40 0.000762474
*CONN
*P sum_o[12] O
*I *575:X O *D sky130_fd_sc_hd__buf_2
*CAP
1 sum_o[12] 7.67726e-05
2 *575:X 0.000279886
3 *40:14 0.000356658
4 sum_o[12] sum_o[13] 1.5289e-05
5 *40:14 sum_o[13] 1.26232e-05
6 *22:13 sum_o[12] 2.12457e-05
7 *22:13 *40:14 0
*RES
1 *575:X *40:14 49.9 
2 *40:14 sum_o[12] 0.382667 
*END

*D_NET *41 0.000577543
*CONN
*P sum_o[13] O
*I *576:X O *D sky130_fd_sc_hd__buf_2
*CAP
1 sum_o[13] 0.000242201
2 *576:X 0.000242201
3 sum_o[13] *62:8 0
4 sum_o[12] sum_o[13] 1.5289e-05
5 *22:13 sum_o[13] 0
6 *23:9 sum_o[13] 6.52282e-05
7 *40:14 sum_o[13] 1.26232e-05
*RES
1 *576:X sum_o[13] 47.5169 
*END

*D_NET *42 0.00118769
*CONN
*P sum_o[14] O
*I *577:X O *D sky130_fd_sc_hd__buf_2
*CAP
1 sum_o[14] 0.000593847
2 *577:X 0.000593847
*RES
1 *577:X sum_o[14] 49.9729 
*END

*D_NET *43 0.00119993
*CONN
*P sum_o[15] O
*I *578:X O *D sky130_fd_sc_hd__buf_2
*CAP
1 sum_o[15] 0.000583819
2 *578:X 0.000583819
3 sum_o[15] *578:A 3.22879e-05
4 *11:7 sum_o[15] 0
*RES
1 *578:X sum_o[15] 49.6829 
*END

*D_NET *44 0.00102598
*CONN
*P sum_o[1] O
*I *579:X O *D sky130_fd_sc_hd__buf_2
*CAP
1 sum_o[1] 8.6746e-05
2 *579:X 0.000255977
3 *44:10 0.000342723
4 sum_o[0] sum_o[1] 4.88045e-05
5 *27:11 sum_o[1] 5.32136e-05
6 *36:11 *44:10 0.000238512
*RES
1 *579:X *44:10 42.7125 
2 *44:10 sum_o[1] 8.50027 
*END

*D_NET *45 0.000837232
*CONN
*P sum_o[2] O
*I *580:X O *D sky130_fd_sc_hd__buf_2
*CAP
1 sum_o[2] 0.000302603
2 *580:X 0.000302603
3 sum_o[2] sum_o[3] 5.32136e-05
4 *27:11 sum_o[2] 5.08417e-05
5 *36:11 sum_o[2] 0.000127972
*RES
1 *580:X sum_o[2] 49.8042 
*END

*D_NET *46 0.000723396
*CONN
*P sum_o[3] O
*I *581:X O *D sky130_fd_sc_hd__buf_2
*CAP
1 sum_o[3] 0.000269815
2 *581:X 0.000269815
3 sum_o[3] *452:B 0
4 sum_o[3] *169:8 4.334e-05
5 sum_o[2] sum_o[3] 5.32136e-05
6 *27:11 sum_o[3] 0
7 *28:7 sum_o[3] 7.61264e-05
8 *36:11 sum_o[3] 1.10864e-05
*RES
1 *581:X sum_o[3] 48.5734 
*END

*D_NET *47 0.000878593
*CONN
*P sum_o[4] O
*I *582:X O *D sky130_fd_sc_hd__buf_2
*CAP
1 sum_o[4] 0.000337948
2 *582:X 0.000337948
3 sum_o[4] sum_o[5] 5.99754e-05
4 sum_o[4] *170:8 8.62783e-05
5 *30:11 sum_o[4] 4.30994e-05
6 *36:13 sum_o[4] 1.33439e-05
*RES
1 *582:X sum_o[4] 49.8901 
*END

*D_NET *48 0.000595543
*CONN
*P sum_o[5] O
*I *583:X O *D sky130_fd_sc_hd__buf_2
*CAP
1 sum_o[5] 0.000213058
2 *583:X 0.000213058
3 sum_o[5] *171:8 0
4 sum_o[4] sum_o[5] 5.99754e-05
5 *28:7 sum_o[5] 7.77421e-05
6 *36:11 sum_o[5] 3.17098e-05
*RES
1 *583:X sum_o[5] 47.7832 
*END

*D_NET *49 0.000656191
*CONN
*P sum_o[6] O
*I *584:X O *D sky130_fd_sc_hd__buf_2
*CAP
1 sum_o[6] 0.000259526
2 *584:X 0.000259526
3 sum_o[6] *172:8 3.12448e-05
4 *29:13 sum_o[6] 3.67855e-05
5 *31:9 sum_o[6] 6.91091e-05
*RES
1 *584:X sum_o[6] 47.8691 
*END

*D_NET *50 0.000773353
*CONN
*P sum_o[7] O
*I *585:X O *D sky130_fd_sc_hd__buf_2
*CAP
1 sum_o[7] 0.000291709
2 *585:X 0.000291709
3 sum_o[7] *173:8 7.23898e-05
4 *14:11 sum_o[7] 6.23473e-05
5 *15:11 sum_o[7] 5.51984e-05
*RES
1 *585:X sum_o[7] 49.1858 
*END

*D_NET *51 0.00100074
*CONN
*P sum_o[8] O
*I *586:X O *D sky130_fd_sc_hd__buf_2
*CAP
1 sum_o[8] 0.000492584
2 *586:X 0.000492584
3 sum_o[8] *137:8 1.55671e-05
4 *16:7 sum_o[8] 0
5 *32:7 sum_o[8] 0
*RES
1 *586:X sum_o[8] 47.57 
*END

*D_NET *52 0.00101076
*CONN
*P sum_o[9] O
*I *587:X O *D sky130_fd_sc_hd__buf_2
*CAP
1 sum_o[9] 0.00049069
2 *587:X 0.00049069
3 sum_o[9] *587:A 2.93845e-05
4 sum_o[10] sum_o[9] 0
5 *33:7 sum_o[9] 0
*RES
1 *587:X sum_o[9] 47.57 
*END

*D_NET *53 0.00087562
*CONN
*I *499:B1_N I *D sky130_fd_sc_hd__a21bo_1
*I *493:B I *D sky130_fd_sc_hd__nand2_1
*I *492:Y O *D sky130_fd_sc_hd__nand2_1
*CAP
1 *499:B1_N 0
2 *493:B 0.000152485
3 *492:Y 0
4 *53:23 0.000133611
5 *53:4 0.000286096
6 *493:B *492:A 5.50106e-05
7 *493:B *492:B 2.22111e-05
8 *53:23 *492:A 0.000143166
9 *53:23 *112:6 5.82853e-05
10 *207:DIODE *493:B 2.4754e-05
*RES
1 *492:Y *53:4 23 
2 *53:4 *493:B 26.3971 
3 *53:4 *53:23 33.0036 
4 *53:23 *499:B1_N 23 
*END

*D_NET *54 0.00090488
*CONN
*I *495:A I *D sky130_fd_sc_hd__xnor2_1
*I *493:Y O *D sky130_fd_sc_hd__nand2_1
*CAP
1 *495:A 0
2 *493:Y 0.000383067
3 *54:10 0.000383067
4 *54:10 *55:8 0.000138747
*RES
1 *493:Y *54:10 43.7379 
2 *54:10 *495:A 38 
*END

*D_NET *55 0.000824413
*CONN
*I *495:B I *D sky130_fd_sc_hd__xnor2_1
*I *499:A2 I *D sky130_fd_sc_hd__a21bo_1
*I *494:X O *D sky130_fd_sc_hd__a21bo_1
*CAP
1 *495:B 0
2 *499:A2 0.000115598
3 *494:X 0.000227236
4 *55:10 0.000115598
5 *55:8 0.000227236
6 *55:8 *112:12 0
7 *55:8 *114:43 0