*SPEF "ieee 1481-1999"
*DESIGN "rcAdder"
*DATE "02:22:31 Thursday February 27, 2025"
*VENDOR "The OpenROAD Project"
*PROGRAM "OpenROAD"
*VERSION "v2.0-16235-gedf00dff9"
*DESIGN_FLOW "NAME_SCOPE LOCAL" "PIN_CAP NONE"
*DIVIDER /
*DELIMITER :
*BUS_DELIMITER []
*T_UNIT 1 NS
*C_UNIT 1 PF
*R_UNIT 1 OHM
*L_UNIT 1 HENRY

*NAME_MAP
*3 a_i[0]
*4 a_i[1]
*5 a_i[2]
*6 a_i[3]
*7 b_i[0]
*8 b_i[1]
*9 b_i[2]
*10 b_i[3]
*11 carry_o
*12 clk
*13 sum_o[0]
*14 sum_o[1]
*15 sum_o[2]
*16 sum_o[3]
*17 _00_
*18 _01_
*19 _02_
*20 _03_
*21 _04_
*22 _05_
*23 _06_
*24 _07_
*25 _08_
*26 _09_
*27 _10_
*28 _11_
*29 clknet_0_clk
*30 clknet_1_0__leaf_clk
*31 clknet_1_1__leaf_clk
*32 fa0\.sum_l
*33 genblk1\[1\]\.fa0\.sum_o
*34 genblk1\[2\]\.fa0\.sum_o
*35 genblk1\[3\]\.fa0\.sum_o
*36 net1
*37 net10
*38 net11
*39 net12
*40 net13
*41 net2
*42 net3
*43 net4
*44 net5
*45 net6
*46 net7
*47 net8
*48 net9
*49 FILLER_0_18
*50 FILLER_0_26
*51 FILLER_0_29
*52 FILLER_0_6
*53 FILLER_1_18
*54 FILLER_1_30
*55 FILLER_1_42
*56 FILLER_1_6
*57 FILLER_2_13
*58 FILLER_2_22
*59 FILLER_2_29
*60 FILLER_3_23
*61 FILLER_3_3
*62 FILLER_4_10
*63 FILLER_4_16
*64 FILLER_4_29
*65 FILLER_4_6
*66 FILLER_5_14
*67 FILLER_5_20
*68 FILLER_5_32
*69 FILLER_5_6
*70 FILLER_6_29
*71 FILLER_7_18
*72 FILLER_7_30
*73 FILLER_7_42
*74 FILLER_8_21
*75 FILLER_8_27
*76 FILLER_8_29
*77 FILLER_8_9
*78 PHY_EDGE_ROW_0_Left_9
*79 PHY_EDGE_ROW_0_Right_0
*80 PHY_EDGE_ROW_1_Left_10
*81 PHY_EDGE_ROW_1_Right_1
*82 PHY_EDGE_ROW_2_Left_11
*83 PHY_EDGE_ROW_2_Right_2
*84 PHY_EDGE_ROW_3_Left_12
*85 PHY_EDGE_ROW_3_Right_3
*86 PHY_EDGE_ROW_4_Left_13
*87 PHY_EDGE_ROW_4_Right_4
*88 PHY_EDGE_ROW_5_Left_14
*89 PHY_EDGE_ROW_5_Right_5
*90 PHY_EDGE_ROW_6_Left_15
*91 PHY_EDGE_ROW_6_Right_6
*92 PHY_EDGE_ROW_7_Left_16
*93 PHY_EDGE_ROW_7_Right_7
*94 PHY_EDGE_ROW_8_Left_17
*95 PHY_EDGE_ROW_8_Right_8
*96 TAP_TAPCELL_ROW_0_18
*97 TAP_TAPCELL_ROW_2_19
*98 TAP_TAPCELL_ROW_4_20
*99 TAP_TAPCELL_ROW_6_21
*100 TAP_TAPCELL_ROW_8_22
*101 _12_
*102 _13_
*103 _14_
*104 _15_
*105 _16_
*106 _17_
*107 _18_
*108 _19_
*109 _20_
*110 _21_
*111 _22_
*112 _23_
*113 _24_
*114 _25_
*115 _26_
*116 _27_
*117 _28_
*118 _29_
*119 _30_
*120 _31_
*121 _32_
*122 clkbuf_0_clk
*123 clkbuf_1_0__f_clk
*124 clkbuf_1_1__f_clk
*125 input1
*126 input2
*127 input3
*128 input4
*129 input5
*130 input6
*131 input7
*132 input8
*133 output10
*134 output11
*135 output12
*136 output13
*137 output9

*PORTS
a_i[0] I
a_i[1] I
a_i[2] I
a_i[3] I
b_i[0] I
b_i[1] I
b_i[2] I
b_i[3] I
carry_o O
clk I
sum_o[0] O
sum_o[1] O
sum_o[2] O
sum_o[3] O

*D_NET *3 0.000999462
*CONN
*P a_i[0] I
*I *125:A I *D sky130_fd_sc_hd__buf_1
*CAP
1 a_i[0] 0.000373806
2 *125:A 0
3 *3:13 0.000373806
4 *3:13 *8:21 0.00025185
*RES
1 a_i[0] *3:13 30.0503 
2 *3:13 *125:A 23 
*END

*D_NET *4 0.000778668
*CONN
*P a_i[1] I
*I *126:A I *D sky130_fd_sc_hd__clkbuf_1
*CAP
1 a_i[1] 0.000359986
2 *126:A 0
3 *4:17 0.000359986
4 *4:17 *129:A 3.12475e-05
5 *4:17 *8:21 2.74495e-05
6 *4:17 *9:17 0
7 *4:17 *41:10 0
*RES
1 a_i[1] *4:17 28.567 
2 *4:17 *126:A 23 
*END

*D_NET *5 0.000734448
*CONN
*P a_i[2] I
*I *127:A I *D sky130_fd_sc_hd__clkbuf_1
*CAP
1 a_i[2] 0.000342157
2 *127:A 0
3 *5:17 0.000342157
4 *5:17 carry_o 2.12457e-05
5 *5:17 *9:17 2.88889e-05
6 *5:17 *11:14 0
7 *5:17 *42:10 0
*RES
1 a_i[2] *5:17 28.2148 
2 *5:17 *127:A 23 
*END

*D_NET *6 0.000690337
*CONN
*P a_i[3] I
*I *128:A I *D sky130_fd_sc_hd__clkbuf_1
*CAP
1 a_i[3] 0.000332102
2 *128:A 0
3 *6:17 0.000332102
4 *6:17 *10:17 2.61329e-05
*RES
1 a_i[3] *6:17 27.5105 
2 *6:17 *128:A 23 
*END

*D_NET *7 0.00077711
*CONN
*P b_i[0] I
*I *129:A I *D sky130_fd_sc_hd__buf_1
*CAP
1 b_i[0] 0.000358975
2 *129:A 0.000358975
3 *129:A *115:B 0
4 *129:A *9:17 2.79122e-05
5 *4:17 *129:A 3.12475e-05
*RES
1 b_i[0] *129:A 48.0408 
*END

*D_NET *8 0.00104648
*CONN
*P b_i[1] I
*I *130:A I *D sky130_fd_sc_hd__clkbuf_1
*CAP
1 b_i[1] 0.000349528
2 *130:A 0
3 *8:21 0.000349528
4 *8:21 *36:8 6.81213e-05
5 *3:13 *8:21 0.00025185
6 *4:17 *8:21 2.74495e-05
*RES
1 b_i[1] *8:21 28.8777 
2 *8:21 *130:A 23 
*END

*D_NET *9 0.00071699
*CONN
*P b_i[2] I
*I *131:A I *D sky130_fd_sc_hd__clkbuf_1
*CAP
1 b_i[2] 0.000330094
2 *131:A 0
3 *9:17 0.000330094
4 *129:A *9:17 2.79122e-05
5 *4:17 *9:17 0
6 *5:17 *9:17 2.88889e-05
*RES
1 b_i[2] *9:17 27.8627 
2 *9:17 *131:A 23 
*END

*D_NET *10 0.000669909
*CONN
*P b_i[3] I
*I *132:A I *D sky130_fd_sc_hd__clkbuf_1
*CAP
1 b_i[3] 0.000299625
2 *132:A 0
3 *10:17 0.000299625
4 *10:17 carry_o 1.5289e-05
5 *10:17 *11:14 2.92378e-05
6 *6:17 *10:17 2.61329e-05
*RES
1 b_i[3] *10:17 27.1584 
2 *10:17 *132:A 23 
*END

*D_NET *11 0.000765619
*CONN
*P carry_o O
*I *137:X O *D sky130_fd_sc_hd__buf_2
*CAP
1 carry_o 7.51216e-05
2 *137:X 0.000274802
3 *11:14 0.000349923
4 *5:17 carry_o 2.12457e-05
5 *5:17 *11:14 0
6 *10:17 carry_o 1.5289e-05
7 *10:17 *11:14 2.92378e-05
*RES
1 *137:X *11:14 49.9 
2 *11:14 carry_o 0.382667 
*END

*D_NET *12 0.000559765
*CONN
*P clk I
*I *122:A I *D sky130_fd_sc_hd__clkbuf_16
*CAP
1 clk 0.000208402
2 *122:A 0.000208402
3 *122:A sum_o[0] 6.23473e-05
4 *122:A sum_o[1] 0
5 *122:A sum_o[2] 8.06147e-05
*RES
1 clk *122:A 48.1354 
*END

*D_NET *13 0.00135148
*CONN
*P sum_o[0] O
*I *133:X O *D sky130_fd_sc_hd__buf_2
*CAP
1 sum_o[0] 9.97665e-05
2 *133:X 0.000439982
3 *13:10 0.000539749
4 sum_o[0] sum_o[1] 5.83979e-05
5 *13:10 *133:A 5.47808e-05
6 *13:10 *37:10 5.55983e-05
7 *13:10 *38:8 4.08537e-05
8 *122:A sum_o[0] 6.23473e-05
*RES
1 *133:X *13:10 45.0946 
2 *13:10 sum_o[0] 8.58613 
*END

*D_NET *14 0.000644683
*CONN
*P sum_o[1] O
*I *134:X O *D sky130_fd_sc_hd__buf_2
*CAP
1 sum_o[1] 0.000281469
2 *134:X 0.000281469
3 sum_o[1] *37:10 2.33476e-05
4 sum_o[0] sum_o[1] 5.83979e-05
5 *122:A sum_o[1] 0
*RES
1 *134:X sum_o[1] 47.2507 
*END

*D_NET *15 0.00115451
*CONN
*P sum_o[2] O
*I *135:X O *D sky130_fd_sc_hd__buf_2
*CAP
1 sum_o[2] 0.000178806
2 *135:X 0.000237294
3 *15:8 0.0004161
4 sum_o[2] sum_o[3] 9.36375e-05
5 *15:8 sum_o[3] 0
6 *15:8 *39:8 0.000148059
7 *122:A sum_o[2] 8.06147e-05
*RES
1 *135:X *15:8 43.2511 
2 *15:8 sum_o[2] 8.9296 
*END

*D_NET *16 0.000993661
*CONN
*P sum_o[3] O
*I *136:X O *D sky130_fd_sc_hd__buf_2
*CAP
1 sum_o[3] 0.000450012
2 *136:X 0.000450012
3 sum_o[3] *30:10 0
4 sum_o[2] sum_o[3] 9.36375e-05
5 *15:8 sum_o[3] 0
*RES
1 *136:X sum_o[3] 49.0027 
*END

*D_NET *17 0.000309987
*CONN
*I *104:B1 I *D sky130_fd_sc_hd__a31o_1
*I *101:X O *D sky130_fd_sc_hd__and2_1
*CAP
1 *104:B1 0
2 *101:X 6.32699e-05
3 *17:8 6.32699e-05
4 *17:8 *115:B 6.07611e-06
5 *17:8 *18:8 0.000114092
6 *17:8 *36:12 6.32792e-05
*RES
1 *101:X *17:8 39.9057 
2 *17:8 *104:B1 38 
*END

*D_NET *18 0.00108292
*CONN
*I *104:A3 I *D sky130_fd_sc_hd__a31o_1
*I *117:A I *D sky130_fd_sc_hd__xnor2_1
*I *102:X O *D sky130_fd_sc_hd__xor2_1
*CAP
1 *104:A3 0
2 *117:A 0.000121982
3 *102:X 6.14414e-05
4 *18:14 0.000258229
5 *18:8 0.000197689
6 *117:A *104:A1 5.90675e-06
7 *117:A *116:A 5.3304e-05
8 *117:A *44:19 0.000186606
9 *18:8 *41:10 2.5415e-05
10 *18:14 *44:8 2.65879e-05
11 *18:14 *44:19 3.1668e-05
12 *17:8 *18:8 0.000114092
*RES
1 *102:X *18:8 39.5536 
2 *18:8 *18:14 17.5479 
3 *18:14 *117:A 26.0243 
4 *18:14 *104:A3 23 
*END

*D_NET *19 0.000870945
*CONN
*I *116:A I *D sky130_fd_sc_hd__and2_1
*I *117:B I *D sky130_fd_sc_hd__xnor2_1
*I *103:Y O *D sky130_fd_sc_hd__nand2_1
*CAP
1 *116:A 0.000175504
2 *117:B 0
3 *103:Y 0.000148418
4 *19:12 0.000175504
5 *19:10 0.000148418
6 *116:A *33:8 3.22051e-05
7 *19:10 *103:A 0.000137594
8 *117:A *116:A 5.3304e-05
*RES
1 *103:Y *19:10 40.5271 
2 *19:10 *19:12 15 
3 *19:12 *117:B 23 
4 *19:12 *116:A 26.0036 
*END

*D_NET *20 0.00180923
*CONN
*I *110:A1 I *D sky130_fd_sc_hd__a21boi_1
*I *108:A I *D sky130_fd_sc_hd__xnor2_1
*I *104:X O *D sky130_fd_sc_hd__a31o_1
*CAP
1 *110:A1 0
2 *108:A 0.000148063
3 *104:X 0.00042804
4 *20:14 0.000193177
5 *20:10 0.000473154
6 *108:A *21:10 5.56279e-05
7 *20:10 *107:A 5.088e-05
8 *20:10 *115:B 0.000112446
9 *20:10 *21:10 2.24366e-06
10 *20:10 *22:12 0.000114645
11 *20:10 *44:19 0.000140935
12 *20:10 *46:10 4.06408e-05
13 *20:14 *21:10 4.93812e-05
*RES
1 *104:X *20:10 47.1143 
2 *20:10 *20:14 16.0979 
3 *20:14 *108:A 26.045 
4 *20:14 *110:A1 23 
*END

*D_NET *21 0.000860701
*CONN
*I *107:A I *D sky130_fd_sc_hd__nand2_1
*I *110:A2 I *D sky130_fd_sc_hd__a21boi_1
*I *105:X O *D sky130_fd_sc_hd__or2_1
*CAP
1 *107:A 0.000118078
2 *110:A2 0
3 *105:X 0.000230519
4 *21:10 0.000348597
5 *21:10 *105:A 5.37348e-06
6 *108:A *21:10 5.56279e-05
7 *20:10 *107:A 5.088e-05
8 *20:10 *21:10 2.24366e-06
9 *20:14 *21:10 4.93812e-05
*RES
1 *105:X *21:10 41.8529 
2 *21:10 *110:A2 38 
3 *21:10 *107:A 40.61 
*END

*D_NET *22 0.000890345
*CONN
*I *107:B I *D sky130_fd_sc_hd__nand2_1
*I *110:B1_N I *D sky130_fd_sc_hd__a21boi_1
*I *106:Y O *D sky130_fd_sc_hd__nand2_1
*CAP
1 *107:B 0.000124598
2 *110:B1_N 0
3 *106:Y 8.18961e-05
4 *22:12 7.80091e-05
5 *22:6 0.000284503
6 *22:12 *105:A 0.000169683
7 *22:12 *46:10 3.70094e-05
8 *20:10 *22:12 0.000114645
*RES
1 *106:Y *22:6 24.0979 
2 *22:6 *22:12 32.9621 
3 *22:12 *110:B1_N 23 
4 *22:6 *107:B 25.0714 
*END

*D_NET *23 0.000627496
*CONN
*I *108:B I *D sky130_fd_sc_hd__xnor2_1
*I *107:Y O *D sky130_fd_sc_hd__nand2_1
*CAP
1 *108:B 0
2 *107:Y 0.000313748
3 *23:10 0.000313748
*RES
1 *107:Y *23:10 42.3086 
2 *23:10 *108:B 38 
*END

*D_NET *24 0.000737286
*CONN
*I *113:B1_N I *D sky130_fd_sc_hd__o21bai_1
*I *112:A I *D sky130_fd_sc_hd__nor2_1
*I *109:X O *D sky130_fd_sc_hd__and2_1
*CAP
1 *113:B1_N 0
2 *112:A 0.000157358
3 *109:X 0
4 *24:21 0.000153179
5 *24:4 0.000310538
6 *112:A *111:A 3.22465e-05
7 *112:A *26:8 1.8788e-05
8 *112:A *47:8 6.51763e-05
9 *24:21 *25:8 0
10 *24:21 *27:8 0
*RES
1 *109:X *24:4 23 
2 *24:4 *112:A 26.5214 
3 *24:4 *24:21 31.9057 
4 *24:21 *113:B1_N 23 
*END

*D_NET *25 0.000724928
*CONN
*I *114:A I *D sky130_fd_sc_hd__xnor2_1
*I *113:A1 I *D sky130_fd_sc_hd__o21bai_1
*I *110:Y O *D sky130_fd_sc_hd__a21boi_1
*CAP
1 *114:A 0.000104781
2 *113:A1 0
3 *110:Y 0.000118968
4 *25:10 0.000104781
5 *25:8 0.000118968
6 *114:A *114:B 0.000144501
7 *114:A *26:18 9.64943e-05
8 *25:8 *27:8 3.64337e-05
9 *24:21 *25:8 0
*RES
1 *110:Y *25:8 40.2579 
2 *25:8 *25:10 15 
3 *25:10 *113:A1 23 
4 *25:10 *114:A 25.5271 
*END

*D_NET *26 0.0010094
*CONN
*I *112:B I *D sky130_fd_sc_hd__nor2_1
*I *113:A2 I *D sky130_fd_sc_hd__o21bai_1
*I *111:Y O *D sky130_fd_sc_hd__nor2_1
*CAP
1 *112:B 0
2 *113:A2 0
3 *111:Y 7.64394e-05
4 *26:18 0.000275251
5 *26:8 0.000351691
6 *26:8 *111:A 5.57408e-05
7 *26:18 *109:B 0
8 *26:18 *137:A 1.14154e-05
9 *26:18 *27:8 0.000112294
10 *26:18 *43:20 1.12863e-05
11 *112:A *26:8 1.8788e-05
12 *114:A *26:18 9.64943e-05
*RES
1 *111:Y *26:8 24.595 
2 *26:8 *26:18 34.8057 
3 *26:18 *113:A2 23 
4 *26:8 *112:B 23 
*END

*D_NET *27 0.000643636
*CONN
*I *114:B I *D sky130_fd_sc_hd__xnor2_1
*I *112:Y O *D sky130_fd_sc_hd__nor2_1
*CAP
1 *114:B 6.30607e-05
2 *112:Y 0.000112143
3 *27:8 0.000175203
4 *114:A *114:B 0.000144501
5 *24:21 *27:8 0
6 *25:8 *27:8 3.64337e-05
7 *26:18 *27:8 0.000112294
*RES
1 *112:Y *27:8 40.2579 
2 *27:8 *114:B 39.5743 
*END

*D_NET *28 0.000720293
*CONN
*I *116:B I *D sky130_fd_sc_hd__and2_1
*I *115:X O *D sky130_fd_sc_hd__or2_1
*CAP
1 *116:B 0
2 *115:X 0.000360146
3 *28:10 0.000360146
4 *28:10 *103:A 0
*RES
1 *115:X *28:10 42.9093 
2 *28:10 *116:B 38 
*END

*D_NET *29 0.00268161
*CONN
*I *124:A I *D sky130_fd_sc_hd__clkbuf_16
*I *123:A I *D sky130_fd_sc_hd__clkbuf_16
*I *122:X O *D sky130_fd_sc_hd__clkbuf_16
*CAP
1 *124:A 0.00054565
2 *123:A 0
3 *122:X 0.000125693
4 *29:12 0.000669464
5 *29:8 0.00134081
6 *124:A *118:CLK 0
7 *124:A *31:10 0
8 *29:12 *120:CLK 0
9 *29:12 *30:10 0
*RES
1 *122:X *29:8 39.5743 
2 *29:8 *29:12 27.47 
3 *29:12 *123:A 23 
4 *29:8 *124:A 48.005 
*END

*D_NET *30 0.00155504
*CONN
*I *120:CLK I *D sky130_fd_sc_hd__dfxtp_1
*I *121:CLK I *D sky130_fd_sc_hd__dfxtp_1
*I *123:X O *D sky130_fd_sc_hd__clkbuf_16
*CAP
1 *120:CLK 0.000146767
2 *121:CLK 0
3 *123:X 0.000630754
4 *30:10 0.000777522
5 sum_o[3] *30:10 0
6 *29:12 *120:CLK 0
7 *29:12 *30:10 0
*RES
1 *123:X *30:10 47.6321 
2 *30:10 *121:CLK 38 
3 *30:10 *120:CLK 40.9621 
*END

*D_NET *31 0.00164658
*CONN
*I *119:CLK I *D sky130_fd_sc_hd__dfxtp_1
*I *118:CLK I *D sky130_fd_sc_hd__dfxtp_1
*I *124:X O *D sky130_fd_sc_hd__clkbuf_16
*CAP
1 *119:CLK 0
2 *118:CLK 0.000143867
3 *124:X 0.000622384
4 *31:10 0.000766251
5 *118:CLK *32:10 0.000114074
6 *124:A *118:CLK 0
7 *124:A *31:10 0
*RES
1 *124:X *31:10 47.6321 
2 *31:10 *118:CLK 40.9621 
3 *31:10 *119:CLK 38 
*END

*D_NET *32 0.00133506
*CONN
*I *118:D I *D sky130_fd_sc_hd__dfxtp_1
*I *116:X O *D sky130_fd_sc_hd__and2_1
*CAP
1 *118:D 5.85432e-05
2 *116:X 0.000353152
3 *32:10 0.000411696
4 *32:10 *33:8 0.00039759
5 *118:CLK *32:10 0.000114074
*RES
1 *116:X *32:10 43.9864 
2 *32:10 *118:D 38.9373 
*END

*D_NET *33 0.00121777
*CONN
*I *119:D I *D sky130_fd_sc_hd__dfxtp_1
*I *117:Y O *D sky130_fd_sc_hd__xnor2_1
*CAP
1 *119:D 0
2 *117:Y 0.000393987
3 *33:8 0.000393987
4 *116:A *33:8 3.22051e-05
5 *32:10 *33:8 0.00039759
*RES
1 *117:Y *33:8 31.1045 
2 *33:8 *119:D 23 
*END

*D_NET *34 0.000983592
*CONN
*I *120:D I *D sky130_fd_sc_hd__dfxtp_1
*I *108:Y O *D sky130_fd_sc_hd__xnor2_1
*CAP
1 *120:D 0
2 *108:Y 0.000491796
3 *34:10 0.000491796
*RES
1 *108:Y *34:10 31.6586 
2 *34:10 *120:D 23 
*END

*D_NET *35 0.00104936
*CONN
*I *121:D I *D sky130_fd_sc_hd__dfxtp_1
*I *114:Y O *D sky130_fd_sc_hd__xnor2_1
*CAP
1 *121:D 0
2 *114:Y 0.00052468
3 *35:8 0.00052468
*RES
1 *114:Y *35:8 31.5809 
2 *35:8 *121:D 23 
*END

*D_NET *36 0.00218941
*CONN
*I *103:B I *D sky130_fd_sc_hd__nand2_1
*I *104:A2 I *D sky130_fd_sc_hd__a31o_1
*I *115:B I *D sky130_fd_sc_hd__or2_1
*I *125:X O *D sky130_fd_sc_hd__buf_1
*CAP
1 *103:B 0
2 *104:A2 0
3 *115:B 0.000273841
4 *125:X 0.000226793
5 *36:42 0.000190895
6 *36:12 0.000549259
7 *36:8 0.000693107
8 *36:12 *101:B 0
9 *36:12 *41:10 0
10 *36:12 *45:8 0
11 *36:42 *103:A 5.58975e-06
12 *129:A *115:B 0
13 *8:21 *36:8 6.81213e-05
14 *17:8 *115:B 6.07611e-06
15 *17:8 *36:12 6.32792e-05
16 *20:10 *115:B 0.000112446
*RES
1 *125:X *36:8 26.9771 
2 *36:8 *36:12 20.075 
3 *36:12 *115:B 42.4743 
4 *36:12 *104:A2 38 
5 *36:8 *36:42 33.8321 
6 *36:42 *103:B 23 
*END

*D_NET *37 0.000998174
*CONN
*I *133:A I *D sky130_fd_sc_hd__buf_2
*I *118:Q O *D sky130_fd_sc_hd__dfxtp_1
*CAP
1 *133:A 7.08602e-05
2 *118:Q 0.000280292
3 *37:10 0.000351152
4 *37:10 *38:8 0.000162143
5 sum_o[1] *37:10 2.33476e-05
6 *13:10 *133:A 5.47808e-05
7 *13:10 *37:10 5.55983e-05
*RES
1 *118:Q *37:10 43.6964 
2 *37:10 *133:A 39.5743 
*END

*D_NET *38 0.000385665
*CONN
*I *134:A I *D sky130_fd_sc_hd__buf_2
*I *119:Q O *D sky130_fd_sc_hd__dfxtp_1
*CAP
1 *134:A 0
2 *119:Q 9.13342e-05
3 *38:8 9.13342e-05
4 *13:10 *38:8 4.08537e-05
5 *37:10 *38:8 0.000162143
*RES
1 *119:Q *38:8 40.2579 
2 *38:8 *134:A 38 
*END

*D_NET *39 0.000592942
*CONN
*I *135:A I *D sky130_fd_sc_hd__buf_2
*I *120:Q O *D sky130_fd_sc_hd__dfxtp_1
*CAP
1 *135:A 0
2 *120:Q 0.000222441
3 *39:8 0.000222441
4 *15:8 *39:8 0.000148059
*RES
1 *120:Q *39:8 42.7229 
2 *39:8 *135:A 38 
*END

*D_NET *40 0.000942566
*CONN
*I *136:A I *D sky130_fd_sc_hd__buf_2
*I *121:Q O *D sky130_fd_sc_hd__dfxtp_1
*CAP
1 *136:A 0
2 *121:Q 0.000471283
3 *40:12 0.000471283
*RES
1 *121:Q *40:12 31.0579 
2 *40:12 *136:A 23 
*END

*D_NET *41 0.000997588
*CONN
*I *101:B I *D sky130_fd_sc_hd__and2_1
*I *102:B I *D sky130_fd_sc_hd__xor2_1
*I *126:X O *D sky130_fd_sc_hd__clkbuf_1
*CAP
1 *101:B 0.000225506
2 *102:B 0
3 *126:X 0.000139067
4 *41:10 0.000364573
5 *101:B *101:A 0.000130362
6 *101:B *102:A 9.67842e-05
7 *101:B *45:8 1.58805e-05
8 *4:17 *41:10 0
9 *18:8 *41:10 2.5415e-05
10 *36:12 *101:B 0
11 *36:12 *41:10 0
*RES
1 *126:X *41:10 40.5271 
2 *41:10 *102:B 38 
3 *41:10 *101:B 42.35 
*END

*D_NET *42 0.000388178
*CONN
*I *106:B I *D sky130_fd_sc_hd__nand2_1
*I *105:B I *D sky130_fd_sc_hd__or2_1
*I *127:X O *D sky130_fd_sc_hd__clkbuf_1
*CAP
1 *106:B 0.000103552
2 *105:B 0
3 *127:X 0
4 *42:10 9.05373e-05
5 *42:4 0.000194089
6 *42:10 *105:A 0
7 *5:17 *42:10 0
*RES
1 *127:X *42:4 23 
2 *42:4 *42:10 31.5536 
3 *42:10 *105:B 23 
4 *42:4 *106:B 24.9471 
*END

*D_NET *43 0.00134814
*CONN
*I *109:B I *D sky130_fd_sc_hd__and2_1
*I *111:B I *D sky130_fd_sc_hd__nor2_1
*I *128:X O *D sky130_fd_sc_hd__clkbuf_1
*CAP
1 *109:B 6.78548e-05
2 *111:B 0
3 *128:X 0.000240899
4 *43:20 0.000263315
5 *43:10 0.000572068
6 *43:20 *111:A 9.42275e-05
7 *43:20 *47:8 9.84851e-05
8 *26:18 *109:B 0
9 *26:18 *43:20 1.12863e-05
*RES
1 *128:X *43:10 41.2521 
2 *43:10 *43:20 49.205 
3 *43:20 *111:B 23 
4 *43:10 *109:B 39.2014 
*END

*D_NET *44 0.00171087
*CONN
*I *103:A I *D sky130_fd_sc_hd__nand2_1
*I *115:A I *D sky130_fd_sc_hd__or2_1
*I *104:A1 I *D sky130_fd_sc_hd__a31o_1
*I *129:X O *D sky130_fd_sc_hd__buf_1
*CAP
1 *103:A 0.000204746
2 *115:A 0.000130067
3 *104:A1 2.14194e-05
4 *129:X 0.000126793
5 *44:19 0.000439781
6 *44:8 0.00025318
7 *117:A *104:A1 5.90675e-06
8 *117:A *44:19 0.000186606
9 *18:14 *44:8 2.65879e-05
10 *18:14 *44:19 3.1668e-05
11 *19:10 *103:A 0.000137594
12 *20:10 *44:19 0.000140935
13 *28:10 *103:A 0
14 *36:42 *103:A 5.58975e-06
*RES
1 *129:X *44:8 25.0714 
2 *44:8 *104:A1 23.4971 
3 *44:8 *44:19 18.0036 
4 *44:19 *115:A 40.0818 
5 *44:19 *103:A 42.8782 
*END

*D_NET *45 0.000997576
*CONN
*I *101:A I *D sky130_fd_sc_hd__and2_1
*I *102:A I *D sky130_fd_sc_hd__xor2_1
*I *130:X O *D sky130_fd_sc_hd__clkbuf_1
*CAP
1 *101:A 0.000184915
2 *102:A 7.71602e-05
3 *130:X 0.0001152
4 *45:10 0.000262075
5 *45:8 0.0001152
6 *101:B *101:A 0.000130362
7 *101:B *102:A 9.67842e-05
8 *101:B *45:8 1.58805e-05
9 *36:12 *45:8 0
*RES
1 *130:X *45:8 39.9057 
2 *45:8 *45:10 15 
3 *45:10 *102:A 24.5743 
4 *45:10 *101:A 26.6457 
*END

*D_NET *46 0.00109679
*CONN
*I *106:A I *D sky130_fd_sc_hd__nand2_1
*I *105:A I *D sky130_fd_sc_hd__or2_1
*I *131:X O *D sky130_fd_sc_hd__clkbuf_1
*CAP
1 *106:A 0
2 *105:A 0.000150573
3 *131:X 0.000271471
4 *46:10 0.000422044
5 *20:10 *46:10 4.06408e-05
6 *21:10 *105:A 5.37348e-06
7 *22:12 *105:A 0.000169683
8 *22:12 *46:10 3.70094e-05
9 *42:10 *105:A 0
*RES
1 *131:X *46:10 42.3086 
2 *46:10 *105:A 41.3557 
3 *46:10 *106:A 38 
*END

*D_NET *47 0.000921152
*CONN
*I *111:A I *D sky130_fd_sc_hd__nor2_1
*I *109:A I *D sky130_fd_sc_hd__and2_1
*I *132:X O *D sky130_fd_sc_hd__clkbuf_1
*CAP
1 *111:A 0.000135039
2 *109:A 0
3 *132:X 0.000152599
4 *47:8 0.000287638
5 *112:A *111:A 3.22465e-05
6 *112:A *47:8 6.51763e-05
7 *26:8 *111:A 5.57408e-05
8 *43:20 *111:A 9.42275e-05
9 *43:20 *47:8 9.84851e-05
*RES
1 *132:X *47:8 26.5007 
2 *47:8 *109:A 23 
3 *47:8 *111:A 26.5007 
*END

*D_NET *48 0.000300224
*CONN
*I *137:A I *D sky130_fd_sc_hd__buf_2
*I *113:Y O *D sky130_fd_sc_hd__o21bai_1
*CAP
1 *137:A 0.000144404
2 *113:Y 0.000144404
3 *26:18 *137:A 1.14154e-05
*RES
1 *113:Y *137:A 48.5686 
*END
