*SPEF "ieee 1481-1999"
*DESIGN "rcAdder"
*DATE "02:22:31 Thursday February 27, 2025"
*VENDOR "The OpenROAD Project"
*PROGRAM "OpenROAD"
*VERSION "v2.0-16235-gedf00dff9"
*DESIGN_FLOW "NAME_SCOPE LOCAL" "PIN_CAP NONE"
*DIVIDER /
*DELIMITER :
*BUS_DELIMITER []
*T_UNIT 1 NS
*C_UNIT 1 PF
*R_UNIT 1 OHM
*L_UNIT 1 HENRY

*NAME_MAP
*3 a_i[0]
*4 a_i[1]
*5 a_i[2]
*6 a_i[3]
*7 b_i[0]
*8 b_i[1]
*9 b_i[2]
*10 b_i[3]
*11 carry_o
*12 clk
*13 sum_o[0]
*14 sum_o[1]
*15 sum_o[2]
*16 sum_o[3]
*17 _00_
*18 _01_
*19 _02_
*20 _03_
*21 _04_
*22 _05_
*23 _06_
*24 _07_
*25 _08_
*26 _09_
*27 _10_
*28 _11_
*29 clknet_0_clk
*30 clknet_1_0__leaf_clk
*31 clknet_1_1__leaf_clk
*32 fa0\.sum_l
*33 genblk1\[1\]\.fa0\.sum_o
*34 genblk1\[2\]\.fa0\.sum_o
*35 genblk1\[3\]\.fa0\.sum_o
*36 net1
*37 net10
*38 net11
*39 net12
*40 net13
*41 net2
*42 net3
*43 net4
*44 net5
*45 net6
*46 net7
*47 net8
*48 net9
*49 FILLER_0_18
*50 FILLER_0_26
*51 FILLER_0_29
*52 FILLER_0_6
*53 FILLER_1_18
*54 FILLER_1_30
*55 FILLER_1_42
*56 FILLER_1_6
*57 FILLER_2_13
*58 FILLER_2_22
*59 FILLER_2_29
*60 FILLER_3_23
*61 FILLER_3_3
*62 FILLER_4_10
*63 FILLER_4_16
*64 FILLER_4_29
*65 FILLER_4_6
*66 FILLER_5_14
*67 FILLER_5_20
*68 FILLER_5_32
*69 FILLER_5_6
*70 FILLER_6_29
*71 FILLER_7_18
*72 FILLER_7_30
*73 FILLER_7_42
*74 FILLER_8_21
*75 FILLER_8_27
*76 FILLER_8_29
*77 FILLER_8_9
*78 PHY_EDGE_ROW_0_Left_9
*79 PHY_EDGE_ROW_0_Right_0
*80 PHY_EDGE_ROW_1_Left_10
*81 PHY_EDGE_ROW_1_Right_1
*82 PHY_EDGE_ROW_2_Left_11
*83 PHY_EDGE_ROW_2_Right_2
*84 PHY_EDGE_ROW_3_Left_12
*85 PHY_EDGE_ROW_3_Right_3
*86 PHY_EDGE_ROW_4_Left_13
*87 PHY_EDGE_ROW_4_Right_4
*88 PHY_EDGE_ROW_5_Left_14
*89 PHY_EDGE_ROW_5_Right_5
*90 PHY_EDGE_ROW_6_Left_15
*91 PHY_EDGE_ROW_6_Right_6
*92 PHY_EDGE_ROW_7_Left_16
*93 PHY_EDGE_ROW_7_Right_7
*94 PHY_EDGE_ROW_8_Left_17
*95 PHY_EDGE_ROW_8_Right_8
*96 TAP_TAPCELL_ROW_0_18
*97 TAP_TAPCELL_ROW_2_19
*98 TAP_TAPCELL_ROW_4_20
*99 TAP_TAPCELL_ROW_6_21
*100 TAP_TAPCELL_ROW_8_22
*101 _12_
*102 _13_
*103 _14_
*104 _15_
*105 _16_
*106 _17_
*107 _18_
*108 _19_
*109 _20_
*110 _21_
*111 _22_
*112 _23_
*113 _24_
*114 _25_
*115 _26_
*116 _27_
*117 _28_
*118 _29_
*119 _30_
*120 _31_
*121 _32_
*122 clkbuf_0_clk
*123 clkbuf_1_0__f_clk
*124 clkbuf_1_1__f_clk
*125 input1
*126 input2
*127 input3
*128 input4
*129 input5
*130 input6
*131 input7
*132 input8
*133 output10
*134 output11
*135 output12
*136 output13
*137 output9

*PORTS
a_i[0] I
a_i[1] I
a_i[2] I
a_i[3] I
b_i[0] I
b_i[1] I
b_i[2] I
b_i[3] I
carry_o O
clk I
sum_o[0] O
sum_o[1] O
sum_o[2] O
sum_o[3] O

*D_NET *3 0.000951052
*CONN
*P a_i[0] I
*I *125:A I *D sky130_fd_sc_hd__buf_1
*CAP
1 a_i[0] 0.000348029
2 *125:A 0.000348029
3 *125:A *130:A 0.000254994
*RES
1 a_i[0] *125:A 23.2804 
*END

*D_NET *4 0.000729519
*CONN
*P a_i[1] I
*I *126:A I *D sky130_fd_sc_hd__clkbuf_1
*CAP
1 a_i[1] 0.000334575
2 *126:A 0.000334575
3 *126:A *129:A 3.19385e-05
4 *126:A *130:A 2.84302e-05
5 *126:A *131:A 0
6 *126:A *41:10 0
*RES
1 a_i[1] *126:A 21.9981 
*END

*D_NET *5 0.000689794
*CONN
*P a_i[2] I
*I *127:A I *D sky130_fd_sc_hd__clkbuf_1
*CAP
1 a_i[2] 0.000318604
2 *127:A 0.000318604
3 *127:A carry_o 2.25951e-05
4 *127:A *105:B 0
5 *127:A *131:A 2.99915e-05
*RES
1 a_i[2] *127:A 21.6946 
*END

*D_NET *6 0.000642939
*CONN
*P a_i[3] I
*I *128:A I *D sky130_fd_sc_hd__clkbuf_1
*CAP
1 a_i[3] 0.00030788
2 *128:A 0.00030788
3 *128:A *132:A 2.71788e-05
*RES
1 a_i[3] *128:A 21.0874 
*END

*D_NET *7 0.000740183
*CONN
*P b_i[0] I
*I *129:A I *D sky130_fd_sc_hd__buf_1
*CAP
1 b_i[0] 0.000339738
2 *129:A 0.000339738
3 *129:A *115:B 0
4 *129:A *131:A 2.87684e-05
5 *126:A *129:A 3.19385e-05
*RES
1 b_i[0] *129:A 18.9462 
*END

*D_NET *8 0.00100088
*CONN
*P b_i[1] I
*I *130:A I *D sky130_fd_sc_hd__clkbuf_1
*CAP
1 b_i[1] 0.000324942
2 *130:A 0.000324942
3 *130:A *36:8 6.75704e-05
4 *125:A *130:A 0.000254994
5 *126:A *130:A 2.84302e-05
*RES
1 b_i[1] *130:A 22.266 
*END

*D_NET *9 0.000670164
*CONN
*P b_i[2] I
*I *131:A I *D sky130_fd_sc_hd__clkbuf_1
*CAP
1 b_i[2] 0.000305702
2 *131:A 0.000305702
3 *126:A *131:A 0
4 *127:A *131:A 2.99915e-05
5 *129:A *131:A 2.87684e-05
*RES
1 b_i[2] *131:A 21.391 
*END

*D_NET *10 0.000622987
*CONN
*P b_i[3] I
*I *132:A I *D sky130_fd_sc_hd__clkbuf_1
*CAP
1 b_i[3] 0.000274849
2 *132:A 0.000274849
3 *132:A carry_o 4.61106e-05
4 *128:A *132:A 2.71788e-05
*RES
1 b_i[3] *132:A 20.7838 
*END

*D_NET *11 0.000728093
*CONN
*P carry_o O
*I *137:X O *D sky130_fd_sc_hd__buf_2
*CAP
1 carry_o 0.000329694
2 *137:X 0.000329694
3 *127:A carry_o 2.25951e-05
4 *132:A carry_o 4.61106e-05
*RES
1 *137:X carry_o 20.891 
*END

*D_NET *12 0.000533315
*CONN
*P clk I
*I *122:A I *D sky130_fd_sc_hd__clkbuf_16
*CAP
1 clk 0.000190637
2 *122:A 0.000190637
3 *122:A sum_o[0] 6.63071e-05
4 *122:A sum_o[1] 0
5 *122:A sum_o[2] 8.57347e-05
*RES
1 clk *122:A 19.0336 
*END

*D_NET *13 0.00126715
*CONN
*P sum_o[0] O
*I *133:X O *D sky130_fd_sc_hd__buf_2
*CAP
1 sum_o[0] 0.000495405
2 *133:X 0.000495405
3 sum_o[0] sum_o[1] 6.20479e-05
4 sum_o[0] *133:A 0.000108712
5 sum_o[0] *134:A 3.92757e-05
6 *122:A sum_o[0] 6.63071e-05
*RES
1 *133:X sum_o[0] 23.818 
*END

*D_NET *14 0.000601575
*CONN
*P sum_o[1] O
*I *134:X O *D sky130_fd_sc_hd__buf_2
*CAP
1 sum_o[1] 0.000259193
2 *134:X 0.000259193
3 sum_o[1] *133:A 2.11419e-05
4 sum_o[0] sum_o[1] 6.20479e-05
5 *122:A sum_o[1] 0
*RES
1 *134:X sum_o[1] 18.267 
*END

*D_NET *15 0.00106608
*CONN
*P sum_o[2] O
*I *135:X O *D sky130_fd_sc_hd__buf_2
*CAP
1 sum_o[2] 0.000369413
2 *135:X 0.000369413
3 sum_o[2] sum_o[3] 9.94734e-05
4 sum_o[2] *135:A 0.000142048
5 *122:A sum_o[2] 8.57347e-05
*RES
1 *135:X sum_o[2] 22.517 
*END

*D_NET *16 0.000927973
*CONN
*P sum_o[3] O
*I *136:X O *D sky130_fd_sc_hd__buf_2
*CAP
1 sum_o[3] 0.00041425
2 *136:X 0.00041425
3 sum_o[3] *30:10 0
4 sum_o[2] sum_o[3] 9.94734e-05
*RES
1 *136:X sum_o[3] 19.7695 
*END

*D_NET *17 0.00027047
*CONN
*I *104:B1 I *D sky130_fd_sc_hd__a31o_1
*I *101:X O *D sky130_fd_sc_hd__and2_1
*CAP
1 *104:B1 5.03318e-05
2 *101:X 5.03318e-05
3 *104:B1 *115:B 5.80706e-06
4 *104:B1 *18:14 0.000103267
5 *104:B1 *36:12 6.07328e-05
*RES
1 *101:X *104:B1 29.2429 
*END

*D_NET *18 0.000985765
*CONN
*I *104:A3 I *D sky130_fd_sc_hd__a31o_1
*I *117:A I *D sky130_fd_sc_hd__xnor2_1
*I *102:X O *D sky130_fd_sc_hd__xor2_1
*CAP
1 *104:A3 0
2 *117:A 0.00010805
3 *102:X 0.000170072
4 *18:14 0.000278123
5 *117:A *104:A1 5.7661e-06
6 *117:A *116:A 5.33005e-05
7 *117:A *44:19 0.000183477
8 *18:14 *41:10 2.56694e-05
9 *18:14 *44:8 2.65105e-05
10 *18:14 *44:19 3.15291e-05
11 *104:B1 *18:14 0.000103267
*RES
1 *102:X *18:14 21.8357 
2 *18:14 *117:A 11.9071 
3 *18:14 *104:A3 9.3 
*END

*D_NET *19 0.000776959
*CONN
*I *116:A I *D sky130_fd_sc_hd__and2_1
*I *117:B I *D sky130_fd_sc_hd__xnor2_1
*I *103:Y O *D sky130_fd_sc_hd__nand2_1
*CAP
1 *116:A 0.000154845
2 *117:B 0
3 *103:Y 0.00012951
4 *19:12 0.000284355
5 *116:A *119:D 3.08664e-05
6 *19:12 *103:A 0.000124083
7 *117:A *116:A 5.33005e-05
*RES
1 *103:Y *19:12 20.4786 
2 *19:12 *117:B 9.3 
3 *19:12 *116:A 11.8893 
*END

*D_NET *20 0.00165314
*CONN
*I *110:A1 I *D sky130_fd_sc_hd__a21boi_1
*I *108:A I *D sky130_fd_sc_hd__xnor2_1
*I *104:X O *D sky130_fd_sc_hd__a31o_1
*CAP
1 *110:A1 0
2 *108:A 0.000134653
3 *104:X 0.000417528
4 *20:14 0.000552182
5 *108:A *21:10 5.49489e-05
6 *20:14 *107:A 5.30613e-05
7 *20:14 *110:B1_N 0.0001098
8 *20:14 *115:B 0.000101363
9 *20:14 *21:10 4.97151e-05
10 *20:14 *44:19 0.000139208
11 *20:14 *46:10 4.06782e-05
*RES
1 *104:X *20:14 27.1036 
2 *20:14 *108:A 11.925 
3 *20:14 *110:A1 9.3 
*END

*D_NET *21 0.000779946
*CONN
*I *107:A I *D sky130_fd_sc_hd__nand2_1
*I *110:A2 I *D sky130_fd_sc_hd__a21boi_1
*I *105:X O *D sky130_fd_sc_hd__or2_1
*CAP
1 *107:A 0.000103932
2 *110:A2 0
3 *105:X 0.000204525
4 *21:10 0.000308457
5 *21:10 *105:A 5.30637e-06
6 *108:A *21:10 5.49489e-05
7 *20:14 *107:A 5.30613e-05
8 *20:14 *21:10 4.97151e-05
*RES
1 *105:X *21:10 17.1214 
2 *21:10 *110:A2 13.8 
3 *21:10 *107:A 16.05 
*END

*D_NET *22 0.000788328
*CONN
*I *107:B I *D sky130_fd_sc_hd__nand2_1
*I *110:B1_N I *D sky130_fd_sc_hd__a21boi_1
*I *106:Y O *D sky130_fd_sc_hd__nand2_1
*CAP
1 *107:B 0.000111909
2 *110:B1_N 6.40893e-05
3 *106:Y 7.00239e-05
4 *22:6 0.000246022
5 *110:B1_N *105:A 0.000153054
6 *110:B1_N *46:10 3.34295e-05
7 *20:14 *110:B1_N 0.0001098
*RES
1 *106:Y *22:6 10.2464 
2 *22:6 *110:B1_N 20.8536 
3 *22:6 *107:B 11.0857 
*END

*D_NET *23 0.000575913
*CONN
*I *108:B I *D sky130_fd_sc_hd__xnor2_1
*I *107:Y O *D sky130_fd_sc_hd__nand2_1
*CAP
1 *108:B 0.000287956
2 *107:Y 0.000287956
*RES
1 *107:Y *108:B 31.3143 
*END

*D_NET *24 0.000673921
*CONN
*I *113:B1_N I *D sky130_fd_sc_hd__o21bai_1
*I *112:A I *D sky130_fd_sc_hd__nor2_1
*I *109:X O *D sky130_fd_sc_hd__and2_1
*CAP
1 *113:B1_N 0.000132885
2 *112:A 0.00014694
3 *109:X 0
4 *24:4 0.000279825
5 *112:A *111:A 3.1367e-05
6 *112:A *26:8 1.8461e-05
7 *112:A *47:8 6.4443e-05
8 *113:B1_N *114:B 0
9 *113:B1_N *25:10 0
*RES
1 *109:X *24:4 9.3 
2 *24:4 *112:A 12.3357 
3 *24:4 *113:B1_N 19.9429 
*END

*D_NET *25 0.000669956
*CONN
*I *114:A I *D sky130_fd_sc_hd__xnor2_1
*I *113:A1 I *D sky130_fd_sc_hd__o21bai_1
*I *110:Y O *D sky130_fd_sc_hd__a21boi_1
*CAP
1 *114:A 9.20842e-05
2 *113:A1 0
3 *110:Y 0.000107744
4 *25:10 0.000199828
5 *114:A *113:A2 9.58126e-05
6 *114:A *114:B 0.000141734
7 *25:10 *114:B 3.27526e-05
8 *113:B1_N *25:10 0
*RES
1 *110:Y *25:10 20.2464 
2 *25:10 *113:A1 9.3 
3 *25:10 *114:A 11.4786 
*END

*D_NET *26 0.000909453
*CONN
*I *112:B I *D sky130_fd_sc_hd__nor2_1
*I *113:A2 I *D sky130_fd_sc_hd__o21bai_1
*I *111:Y O *D sky130_fd_sc_hd__nor2_1
*CAP
1 *112:B 0
2 *113:A2 0.000241783
3 *111:Y 6.78768e-05
4 *26:8 0.00030966
5 *113:A2 *109:B 0
6 *113:A2 *111:B 1.00332e-05
7 *113:A2 *114:B 0.000101227
8 *113:A2 *137:A 1.04232e-05
9 *26:8 *111:A 5.4177e-05
10 *112:A *26:8 1.8461e-05
11 *114:A *113:A2 9.58126e-05
*RES
1 *111:Y *26:8 10.675 
2 *26:8 *113:A2 22.4429 
3 *26:8 *112:B 9.3 
*END

*D_NET *27 0.000580089
*CONN
*I *114:B I *D sky130_fd_sc_hd__xnor2_1
*I *112:Y O *D sky130_fd_sc_hd__nor2_1
*CAP
1 *114:B 0.000152188
2 *112:Y 0.000152188
3 *113:A2 *114:B 0.000101227
4 *113:B1_N *114:B 0
5 *114:A *114:B 0.000141734
6 *25:10 *114:B 3.27526e-05
*RES
1 *112:Y *114:B 30.9036 
*END

*D_NET *28 0.000676004
*CONN
*I *116:B I *D sky130_fd_sc_hd__and2_1
*I *115:X O *D sky130_fd_sc_hd__or2_1
*CAP
1 *116:B 0.000338002
2 *115:X 0.000338002
3 *116:B *103:A 0
*RES
1 *115:X *116:B 31.8321 
*END

*D_NET *29 0.0024507
*CONN
*I *124:A I *D sky130_fd_sc_hd__clkbuf_16
*I *123:A I *D sky130_fd_sc_hd__clkbuf_16
*I *122:X O *D sky130_fd_sc_hd__clkbuf_16
*CAP
1 *124:A 0.000491155
2 *123:A 0.000613523
3 *122:X 0.000120671
4 *29:8 0.00122535
5 *123:A *120:CLK 0
6 *123:A *30:10 0
7 *124:A *118:CLK 0
8 *124:A *31:10 0
*RES
1 *122:X *29:8 15.1571 
2 *29:8 *123:A 24.55 
3 *29:8 *124:A 22.425 
*END

*D_NET *30 0.00146245
*CONN
*I *120:CLK I *D sky130_fd_sc_hd__dfxtp_1
*I *121:CLK I *D sky130_fd_sc_hd__dfxtp_1
*I *123:X O *D sky130_fd_sc_hd__clkbuf_16
*CAP
1 *120:CLK 0.000134755
2 *121:CLK 0
3 *123:X 0.00059647
4 *30:10 0.000731225
5 sum_o[3] *30:10 0
6 *123:A *120:CLK 0
7 *123:A *30:10 0
*RES
1 *123:X *30:10 22.1036 
2 *30:10 *121:CLK 13.8 
3 *30:10 *120:CLK 16.3536 
*END

*D_NET *31 0.00153468
*CONN
*I *119:CLK I *D sky130_fd_sc_hd__dfxtp_1
*I *118:CLK I *D sky130_fd_sc_hd__dfxtp_1
*I *124:X O *D sky130_fd_sc_hd__clkbuf_16
*CAP
1 *119:CLK 0
2 *118:CLK 0.000125546
3 *124:X 0.000590167
4 *31:10 0.000715713
5 *118:CLK *118:D 0.000103253
6 *124:A *118:CLK 0
7 *124:A *31:10 0
*RES
1 *124:X *31:10 22.1036 
2 *31:10 *118:CLK 16.3536 
3 *31:10 *119:CLK 13.8 
*END

*D_NET *32 0.00126536
*CONN
*I *118:D I *D sky130_fd_sc_hd__dfxtp_1
*I *116:X O *D sky130_fd_sc_hd__and2_1
*CAP
1 *118:D 0.000381137
2 *116:X 0.000381137
3 *118:D *119:D 0.000399835
4 *118:CLK *118:D 0.000103253
*RES
1 *116:X *118:D 33.5687 
*END

*D_NET *33 0.0011391
*CONN
*I *119:D I *D sky130_fd_sc_hd__dfxtp_1
*I *117:Y O *D sky130_fd_sc_hd__xnor2_1
*CAP
1 *119:D 0.000354201
2 *117:Y 0.000354201
3 *116:A *119:D 3.08664e-05
4 *118:D *119:D 0.000399835
*RES
1 *117:Y *119:D 25.5866 
*END

*D_NET *34 0.000924436
*CONN
*I *120:D I *D sky130_fd_sc_hd__dfxtp_1
*I *108:Y O *D sky130_fd_sc_hd__xnor2_1
*CAP
1 *120:D 0.000462218
2 *108:Y 0.000462218
*RES
1 *108:Y *120:D 26.0643 
*END

*D_NET *35 0.000985401
*CONN
*I *121:D I *D sky130_fd_sc_hd__dfxtp_1
*I *114:Y O *D sky130_fd_sc_hd__xnor2_1
*CAP
1 *121:D 0.000492701
2 *114:Y 0.000492701
*RES
1 *114:Y *121:D 25.9973 
*END

*D_NET *36 0.00195542
*CONN
*I *103:B I *D sky130_fd_sc_hd__nand2_1
*I *104:A2 I *D sky130_fd_sc_hd__a31o_1
*I *115:B I *D sky130_fd_sc_hd__or2_1
*I *125:X O *D sky130_fd_sc_hd__buf_1
*CAP
1 *103:B 0.000169619
2 *104:A2 0
3 *115:B 0.000244585
4 *125:X 0.000212018
5 *36:12 0.000475647
6 *36:8 0.000612699
7 *103:B *103:A 5.37741e-06
8 *36:12 *101:B 0
9 *36:12 *41:10 0
10 *36:12 *45:10 0
11 *104:B1 *115:B 5.80706e-06
12 *104:B1 *36:12 6.07328e-05
13 *129:A *115:B 0
14 *130:A *36:8 6.75704e-05
15 *20:14 *115:B 0.000101363
*RES
1 *125:X *36:8 12.7286 
2 *36:8 *36:12 8.875 
3 *36:12 *115:B 17.6571 
4 *36:12 *104:A2 13.8 
5 *36:8 *103:B 21.6036 
*END

*D_NET *37 0.000894257
*CONN
*I *133:A I *D sky130_fd_sc_hd__buf_2
*I *118:Q O *D sky130_fd_sc_hd__dfxtp_1
*CAP
1 *133:A 0.000308596
2 *118:Q 0.000308596
3 *133:A *134:A 0.000147211
4 sum_o[0] *133:A 0.000108712
5 sum_o[1] *133:A 2.11419e-05
*RES
1 *118:Q *133:A 33.8679 
*END

*D_NET *38 0.000334042
*CONN
*I *134:A I *D sky130_fd_sc_hd__buf_2
*I *119:Q O *D sky130_fd_sc_hd__dfxtp_1
*CAP
1 *134:A 7.37775e-05
2 *119:Q 7.37775e-05
3 sum_o[0] *134:A 3.92757e-05
4 *133:A *134:A 0.000147211
*RES
1 *119:Q *134:A 29.5464 
*END

*D_NET *39 0.000525005
*CONN
*I *135:A I *D sky130_fd_sc_hd__buf_2
*I *120:Q O *D sky130_fd_sc_hd__dfxtp_1
*CAP
1 *135:A 0.000191479
2 *120:Q 0.000191479
3 sum_o[2] *135:A 0.000142048
*RES
1 *120:Q *135:A 31.6714 
*END

*D_NET *40 0.000898851
*CONN
*I *136:A I *D sky130_fd_sc_hd__buf_2
*I *121:Q O *D sky130_fd_sc_hd__dfxtp_1
*CAP
1 *136:A 0.000449426
2 *121:Q 0.000449426
*RES
1 *121:Q *136:A 25.5464 
*END

*D_NET *41 0.000920507
*CONN
*I *101:B I *D sky130_fd_sc_hd__and2_1
*I *102:B I *D sky130_fd_sc_hd__xor2_1
*I *126:X O *D sky130_fd_sc_hd__clkbuf_1
*CAP
1 *101:B 0.00019913
2 *102:B 0
3 *126:X 0.000127302
4 *41:10 0.000326432
5 *101:B *101:A 0.000129556
6 *101:B *102:A 9.71197e-05
7 *101:B *45:10 1.52978e-05
8 *126:A *41:10 0
9 *18:14 *41:10 2.56694e-05
10 *36:12 *101:B 0
11 *36:12 *41:10 0
*RES
1 *126:X *41:10 15.9786 
2 *41:10 *102:B 13.8 
3 *41:10 *101:B 17.55 
*END

*D_NET *42 0.000353837
*CONN
*I *106:B I *D sky130_fd_sc_hd__nand2_1
*I *105:B I *D sky130_fd_sc_hd__or2_1
*I *127:X O *D sky130_fd_sc_hd__clkbuf_1
*CAP
1 *106:B 9.70779e-05
2 *105:B 7.98408e-05
3 *127:X 0
4 *42:4 0.000176919
5 *105:B *105:A 0
6 *127:A *105:B 0
*RES
1 *127:X *42:4 9.3 
2 *42:4 *105:B 19.6393 
3 *42:4 *106:B 10.9786 
*END

*D_NET *43 0.00126044
*CONN
*I *109:B I *D sky130_fd_sc_hd__and2_1
*I *111:B I *D sky130_fd_sc_hd__nor2_1
*I *128:X O *D sky130_fd_sc_hd__clkbuf_1
*CAP
1 *109:B 6.35066e-05
2 *111:B 0.000243584
3 *128:X 0.000223022
4 *43:10 0.000530113
5 *111:B *111:A 9.1136e-05
6 *111:B *47:8 9.90431e-05
7 *113:A2 *109:B 0
8 *113:A2 *111:B 1.00332e-05
*RES
1 *128:X *43:10 16.6036 
2 *43:10 *111:B 26.425 
3 *43:10 *109:B 14.8357 
*END

*D_NET *44 0.00157854
*CONN
*I *103:A I *D sky130_fd_sc_hd__nand2_1
*I *115:A I *D sky130_fd_sc_hd__or2_1
*I *104:A1 I *D sky130_fd_sc_hd__a31o_1
*I *129:X O *D sky130_fd_sc_hd__buf_1
*CAP
1 *103:A 0.000183884
2 *115:A 0.000113174
3 *104:A1 2.03441e-05
4 *129:X 0.000123941
5 *44:19 0.000387009
6 *44:8 0.000234236
7 *103:B *103:A 5.37741e-06
8 *116:B *103:A 0
9 *117:A *104:A1 5.7661e-06
10 *117:A *44:19 0.000183477
11 *18:14 *44:8 2.65105e-05
12 *18:14 *44:19 3.15291e-05
13 *19:12 *103:A 0.000124083
14 *20:14 *44:19 0.000139208
*RES
1 *129:X *44:8 11.0857 
2 *44:8 *104:A1 9.72857 
3 *44:8 *44:19 7.08929 
4 *44:19 *115:A 15.5946 
5 *44:19 *103:A 18.0054 
*END

*D_NET *45 0.000895336
*CONN
*I *101:A I *D sky130_fd_sc_hd__and2_1
*I *102:A I *D sky130_fd_sc_hd__xor2_1
*I *130:X O *D sky130_fd_sc_hd__clkbuf_1
*CAP
1 *101:A 0.000160677
2 *102:A 6.75692e-05
3 *130:X 9.84357e-05
4 *45:10 0.000326681
5 *101:B *101:A 0.000129556
6 *101:B *102:A 9.71197e-05
7 *101:B *45:10 1.52978e-05
8 *36:12 *45:10 0
*RES
1 *130:X *45:10 19.9429 
2 *45:10 *102:A 10.6571 
3 *45:10 *101:A 12.4429 
*END

*D_NET *46 0.00100052
*CONN
*I *106:A I *D sky130_fd_sc_hd__nand2_1
*I *105:A I *D sky130_fd_sc_hd__or2_1
*I *131:X O *D sky130_fd_sc_hd__clkbuf_1
*CAP
1 *106:A 0
2 *105:A 0.000135531
3 *131:X 0.000248497
4 *46:10 0.000384028
5 *105:B *105:A 0
6 *110:B1_N *105:A 0.000153054
7 *110:B1_N *46:10 3.34295e-05
8 *20:14 *46:10 4.06782e-05
9 *21:10 *105:A 5.30637e-06
*RES
1 *131:X *46:10 17.5143 
2 *46:10 *105:A 16.6929 
3 *46:10 *106:A 13.8 
*END

*D_NET *47 0.000860999
*CONN
*I *111:A I *D sky130_fd_sc_hd__nor2_1
*I *109:A I *D sky130_fd_sc_hd__and2_1
*I *132:X O *D sky130_fd_sc_hd__clkbuf_1
*CAP
1 *111:A 0.000119873
2 *109:A 0
3 *132:X 0.000140544
4 *47:8 0.000260416
5 *111:B *111:A 9.1136e-05
6 *111:B *47:8 9.90431e-05
7 *112:A *111:A 3.1367e-05
8 *112:A *47:8 6.4443e-05
9 *26:8 *111:A 5.4177e-05
*RES
1 *132:X *47:8 12.3179 
2 *47:8 *109:A 9.3 
3 *47:8 *111:A 12.3179 
*END

*D_NET *48 0.000277279
*CONN
*I *137:A I *D sky130_fd_sc_hd__buf_2
*I *113:Y O *D sky130_fd_sc_hd__o21bai_1
*CAP
1 *137:A 0.000133428
2 *113:Y 0.000133428
3 *113:A2 *137:A 1.04232e-05
*RES
1 *113:Y *137:A 20.8143 
*END
