*SPEF "ieee 1481-1999"
*DESIGN "rcAdder"
*DATE "01:22:08 Friday February 28, 2025"
*VENDOR "The OpenROAD Project"
*PROGRAM "OpenROAD"
*VERSION "v2.0-16235-gedf00dff9"
*DESIGN_FLOW "NAME_SCOPE LOCAL" "PIN_CAP NONE"
*DIVIDER /
*DELIMITER :
*BUS_DELIMITER []
*T_UNIT 1 NS
*C_UNIT 1 PF
*R_UNIT 1 OHM
*L_UNIT 1 HENRY

*NAME_MAP
*3 a_i[0]
*4 a_i[10]
*5 a_i[11]
*6 a_i[12]
*7 a_i[13]
*8 a_i[14]
*9 a_i[15]
*10 a_i[1]
*11 a_i[2]
*12 a_i[3]
*13 a_i[4]
*14 a_i[5]
*15 a_i[6]
*16 a_i[7]
*17 a_i[8]
*18 a_i[9]
*19 b_i[0]
*20 b_i[10]
*21 b_i[11]
*22 b_i[12]
*23 b_i[13]
*24 b_i[14]
*25 b_i[15]
*26 b_i[1]
*27 b_i[2]
*28 b_i[3]
*29 b_i[4]
*30 b_i[5]
*31 b_i[6]
*32 b_i[7]
*33 b_i[8]
*34 b_i[9]
*35 carry_o
*36 clk
*37 sum_o[0]
*38 sum_o[10]
*39 sum_o[11]
*40 sum_o[12]
*41 sum_o[13]
*42 sum_o[14]
*43 sum_o[15]
*44 sum_o[1]
*45 sum_o[2]
*46 sum_o[3]
*47 sum_o[4]
*48 sum_o[5]
*49 sum_o[6]
*50 sum_o[7]
*51 sum_o[8]
*52 sum_o[9]
*53 _000_
*54 _001_
*55 _002_
*56 _003_
*57 _004_
*58 _005_
*59 _006_
*60 _007_
*61 _008_
*62 _009_
*63 _010_
*64 _011_
*65 _012_
*66 _013_
*67 _014_
*68 _015_
*69 _016_
*70 _017_
*71 _018_
*72 _019_
*73 _020_
*74 _021_
*75 _022_
*76 _023_
*77 _024_
*78 _025_
*79 _026_
*80 _027_
*81 _028_
*82 _029_
*83 _030_
*84 _031_
*85 _032_
*86 _033_
*87 _034_
*88 _035_
*89 _036_
*90 _037_
*91 _038_
*92 _039_
*93 _040_
*94 _041_
*95 _042_
*96 _043_
*97 _044_
*98 _045_
*99 _046_
*100 _047_
*101 _048_
*102 _049_
*103 _050_
*104 _051_
*105 _052_
*106 _053_
*107 _054_
*108 _055_
*109 _056_
*110 _057_
*111 _058_
*112 _059_
*113 clknet_0_clk
*114 clknet_1_0__leaf_clk
*115 clknet_1_1__leaf_clk
*116 fa0\.sum_l
*117 genblk1\[10\]\.fa0\.sum_o
*118 genblk1\[11\]\.fa0\.sum_o
*119 genblk1\[12\]\.fa0\.sum_o
*120 genblk1\[13\]\.fa0\.sum_o
*121 genblk1\[14\]\.fa0\.sum_o
*122 genblk1\[15\]\.fa0\.sum_o
*123 genblk1\[1\]\.fa0\.sum_o
*124 genblk1\[2\]\.fa0\.sum_o
*125 genblk1\[3\]\.fa0\.sum_o
*126 genblk1\[4\]\.fa0\.sum_o
*127 genblk1\[5\]\.fa0\.sum_o
*128 genblk1\[6\]\.fa0\.sum_o
*129 genblk1\[7\]\.fa0\.sum_o
*130 genblk1\[8\]\.fa0\.sum_o
*131 genblk1\[9\]\.fa0\.sum_o
*132 net1
*133 net10
*134 net11
*135 net12
*136 net13
*137 net14
*138 net15
*139 net16
*140 net17
*141 net18
*142 net19
*143 net2
*144 net20
*145 net21
*146 net22
*147 net23
*148 net24
*149 net25
*150 net26
*151 net27
*152 net28
*153 net29
*154 net3
*155 net30
*156 net31
*157 net32
*158 net33
*159 net34
*160 net35
*161 net36
*162 net37
*163 net38
*164 net39
*165 net4
*166 net40
*167 net41
*168 net42
*169 net43
*170 net44
*171 net45
*172 net46
*173 net47
*174 net48
*175 net49
*176 net5
*177 net6
*178 net7
*179 net8
*180 net9
*181 ANTENNA_clkbuf_0_clk_A
*182 ANTENNA_input10_A
*183 ANTENNA_input11_A
*184 ANTENNA_input12_A
*185 ANTENNA_input13_A
*186 ANTENNA_input14_A
*187 ANTENNA_input15_A
*188 ANTENNA_input16_A
*189 ANTENNA_input17_A
*190 ANTENNA_input18_A
*191 ANTENNA_input19_A
*192 ANTENNA_input1_A
*193 ANTENNA_input20_A
*194 ANTENNA_input21_A
*195 ANTENNA_input22_A
*196 ANTENNA_input23_A
*197 ANTENNA_input24_A
*198 ANTENNA_input25_A
*199 ANTENNA_input26_A
*200 ANTENNA_input27_A
*201 ANTENNA_input28_A
*202 ANTENNA_input29_A
*203 ANTENNA_input2_A
*204 ANTENNA_input30_A
*205 ANTENNA_input31_A
*206 ANTENNA_input32_A
*207 ANTENNA_input3_A
*208 ANTENNA_input4_A
*209 ANTENNA_input5_A
*210 ANTENNA_input6_A
*211 ANTENNA_input7_A
*212 ANTENNA_input8_A
*213 ANTENNA_input9_A
*214 FILLER_0_15
*215 FILLER_0_27
*216 FILLER_0_3
*217 FILLER_0_34
*218 FILLER_0_41
*219 FILLER_0_49
*220 FILLER_0_55
*221 FILLER_0_57
*222 FILLER_0_63
*223 FILLER_0_70
*224 FILLER_0_79
*225 FILLER_0_90
*226 FILLER_10_101
*227 FILLER_10_17
*228 FILLER_10_25
*229 FILLER_10_29
*230 FILLER_10_41
*231 FILLER_10_53
*232 FILLER_10_65
*233 FILLER_10_7
*234 FILLER_10_77
*235 FILLER_10_83
*236 FILLER_10_85
*237 FILLER_10_97
*238 FILLER_11_100
*239 FILLER_11_17
*240 FILLER_11_34
*241 FILLER_11_46
*242 FILLER_11_54
*243 FILLER_11_57
*244 FILLER_11_69
*245 FILLER_11_7
*246 FILLER_11_81
*247 FILLER_11_93
*248 FILLER_12_18
*249 FILLER_12_26
*250 FILLER_12_29
*251 FILLER_12_41
*252 FILLER_12_53
*253 FILLER_12_6
*254 FILLER_12_65
*255 FILLER_12_83
*256 FILLER_13_105
*257 FILLER_13_19
*258 FILLER_13_31
*259 FILLER_13_43
*260 FILLER_13_55
*261 FILLER_13_57
*262 FILLER_13_61
*263 FILLER_13_7
*264 FILLER_13_83
*265 FILLER_13_92
*266 FILLER_13_97
*267 FILLER_14_11
*268 FILLER_14_24
*269 FILLER_14_29
*270 FILLER_14_41
*271 FILLER_14_53
*272 FILLER_14_79
*273 FILLER_14_83
*274 FILLER_14_85
*275 FILLER_14_97
*276 FILLER_15_107
*277 FILLER_15_17
*278 FILLER_15_45
*279 FILLER_15_53
*280 FILLER_15_57
*281 FILLER_15_61
*282 FILLER_15_72
*283 FILLER_15_76
*284 FILLER_15_80
*285 FILLER_15_88
*286 FILLER_16_18
*287 FILLER_16_26
*288 FILLER_16_29
*289 FILLER_16_3
*290 FILLER_16_33
*291 FILLER_16_50
*292 FILLER_16_62
*293 FILLER_16_90
*294 FILLER_17_25
*295 FILLER_17_29
*296 FILLER_17_41
*297 FILLER_17_49
*298 FILLER_17_62
*299 FILLER_17_69
*300 FILLER_17_76
*301 FILLER_17_83
*302 FILLER_17_90
*303 FILLER_17_94
*304 FILLER_1_16
*305 FILLER_1_38
*306 FILLER_1_55
*307 FILLER_1_64
*308 FILLER_1_8
*309 FILLER_1_84
*310 FILLER_2_22
*311 FILLER_2_3
*312 FILLER_2_40
*313 FILLER_2_61
*314 FILLER_2_78
*315 FILLER_2_92
*316 FILLER_3_104
*317 FILLER_3_20
*318 FILLER_3_39
*319 FILLER_3_51
*320 FILLER_3_55
*321 FILLER_3_57
*322 FILLER_3_69
*323 FILLER_3_8
*324 FILLER_4_15
*325 FILLER_4_27
*326 FILLER_4_29
*327 FILLER_4_41
*328 FILLER_4_53
*329 FILLER_4_6
*330 FILLER_4_72
*331 FILLER_4_85
*332 FILLER_4_91
*333 FILLER_5_25
*334 FILLER_5_3
*335 FILLER_5_42
*336 FILLER_5_54
*337 FILLER_5_57
*338 FILLER_5_84
*339 FILLER_5_96
*340 FILLER_6_10
*341 FILLER_6_101
*342 FILLER_6_22
*343 FILLER_6_29
*344 FILLER_6_41
*345 FILLER_6_53
*346 FILLER_6_65
*347 FILLER_6_73
*348 FILLER_7_10
*349 FILLER_7_100
*350 FILLER_7_14
*351 FILLER_7_26
*352 FILLER_7_38
*353 FILLER_7_50
*354 FILLER_7_57
*355 FILLER_7_6
*356 FILLER_7_69
*357 FILLER_7_73
*358 FILLER_7_92
*359 FILLER_8_24
*360 FILLER_8_29
*361 FILLER_8_3
*362 FILLER_8_41
*363 FILLER_8_53
*364 FILLER_8_65
*365 FILLER_8_77
*366 FILLER_8_83
*367 FILLER_9_103
*368 FILLER_9_16
*369 FILLER_9_35
*370 FILLER_9_47
*371 FILLER_9_55
*372 FILLER_9_57
*373 FILLER_9_8
*374 FILLER_9_80
*375 FILLER_9_86
*376 PHY_EDGE_ROW_0_Left_18
*377 PHY_EDGE_ROW_0_Right_0
*378 PHY_EDGE_ROW_10_Left_28
*379 PHY_EDGE_ROW_10_Right_10
*380 PHY_EDGE_ROW_11_Left_29
*381 PHY_EDGE_ROW_11_Right_11
*382 PHY_EDGE_ROW_12_Left_30
*383 PHY_EDGE_ROW_12_Right_12
*384 PHY_EDGE_ROW_13_Left_31
*385 PHY_EDGE_ROW_13_Right_13
*386 PHY_EDGE_ROW_14_Left_32
*387 PHY_EDGE_ROW_14_Right_14
*388 PHY_EDGE_ROW_15_Left_33
*389 PHY_EDGE_ROW_15_Right_15
*390 PHY_EDGE_ROW_16_Left_34
*391 PHY_EDGE_ROW_16_Right_16
*392 PHY_EDGE_ROW_17_Left_35
*393 PHY_EDGE_ROW_17_Right_17
*394 PHY_EDGE_ROW_1_Left_19
*395 PHY_EDGE_ROW_1_Right_1
*396 PHY_EDGE_ROW_2_Left_20
*397 PHY_EDGE_ROW_2_Right_2
*398 PHY_EDGE_ROW_3_Left_21
*399 PHY_EDGE_ROW_3_Right_3
*400 PHY_EDGE_ROW_4_Left_22
*401 PHY_EDGE_ROW_4_Right_4
*402 PHY_EDGE_ROW_5_Left_23
*403 PHY_EDGE_ROW_5_Right_5
*404 PHY_EDGE_ROW_6_Left_24
*405 PHY_EDGE_ROW_6_Right_6
*406 PHY_EDGE_ROW_7_Left_25
*407 PHY_EDGE_ROW_7_Right_7
*408 PHY_EDGE_ROW_8_Left_26
*409 PHY_EDGE_ROW_8_Right_8
*410 PHY_EDGE_ROW_9_Left_27
*411 PHY_EDGE_ROW_9_Right_9
*412 TAP_TAPCELL_ROW_0_36
*413 TAP_TAPCELL_ROW_0_37
*414 TAP_TAPCELL_ROW_0_38
*415 TAP_TAPCELL_ROW_10_52
*416 TAP_TAPCELL_ROW_10_53
*417 TAP_TAPCELL_ROW_11_54
*418 TAP_TAPCELL_ROW_12_55
*419 TAP_TAPCELL_ROW_12_56
*420 TAP_TAPCELL_ROW_13_57
*421 TAP_TAPCELL_ROW_14_58
*422 TAP_TAPCELL_ROW_14_59
*423 TAP_TAPCELL_ROW_15_60
*424 TAP_TAPCELL_ROW_16_61
*425 TAP_TAPCELL_ROW_16_62
*426 TAP_TAPCELL_ROW_17_63
*427 TAP_TAPCELL_ROW_17_64
*428 TAP_TAPCELL_ROW_17_65
*429 TAP_TAPCELL_ROW_1_39
*430 TAP_TAPCELL_ROW_2_40
*431 TAP_TAPCELL_ROW_2_41
*432 TAP_TAPCELL_ROW_3_42
*433 TAP_TAPCELL_ROW_4_43
*434 TAP_TAPCELL_ROW_4_44
*435 TAP_TAPCELL_ROW_5_45
*436 TAP_TAPCELL_ROW_6_46
*437 TAP_TAPCELL_ROW_6_47
*438 TAP_TAPCELL_ROW_7_48
*439 TAP_TAPCELL_ROW_8_49
*440 TAP_TAPCELL_ROW_8_50
*441 TAP_TAPCELL_ROW_9_51
*442 _060_
*443 _061_
*444 _062_
*445 _063_
*446 _064_
*447 _065_
*448 _066_
*449 _067_
*450 _068_
*451 _069_
*452 _070_
*453 _071_
*454 _072_
*455 _073_
*456 _074_
*457 _075_
*458 _076_
*459 _077_
*460 _078_
*461 _079_
*462 _080_
*463 _081_
*464 _082_
*465 _083_
*466 _084_
*467 _085_
*468 _086_
*469 _087_
*470 _088_
*471 _089_
*472 _090_
*473 _091_
*474 _092_
*475 _093_
*476 _094_
*477 _095_
*478 _096_
*479 _097_
*480 _098_
*481 _099_
*482 _100_
*483 _101_
*484 _102_
*485 _103_
*486 _104_
*487 _105_
*488 _106_
*489 _107_
*490 _108_
*491 _109_
*492 _110_
*493 _111_
*494 _112_
*495 _113_
*496 _114_
*497 _115_
*498 _116_
*499 _117_
*500 _118_
*501 _119_
*502 _120_
*503 _121_
*504 _122_
*505 _123_
*506 _124_
*507 _125_
*508 _126_
*509 _127_
*510 _128_
*511 _129_
*512 _130_
*513 _131_
*514 _132_
*515 _133_
*516 _134_
*517 _135_
*518 _136_
*519 _137_
*520 _138_
*521 _139_
*522 _140_
*523 _141_
*524 _142_
*525 _143_
*526 _144_
*527 _145_
*528 _146_
*529 _147_
*530 _148_
*531 _149_
*532 _150_
*533 _151_
*534 _152_
*535 clkbuf_0_clk
*536 clkbuf_1_0__f_clk
*537 clkbuf_1_1__f_clk
*538 clkload0
*539 input1
*540 input10
*541 input11
*542 input12
*543 input13
*544 input14
*545 input15
*546 input16
*547 input17
*548 input18
*549 input19
*550 input2
*551 input20
*552 input21
*553 input22
*554 input23
*555 input24
*556 input25
*557 input26
*558 input27
*559 input28
*560 input29
*561 input3
*562 input30
*563 input31
*564 input32
*565 input4
*566 input5
*567 input6
*568 input7
*569 input8
*570 input9
*571 output33
*572 output34
*573 output35
*574 output36
*575 output37
*576 output38
*577 output39
*578 output40
*579 output41
*580 output42
*581 output43
*582 output44
*583 output45
*584 output46
*585 output47
*586 output48
*587 output49

*PORTS
a_i[0] I
a_i[10] I
a_i[11] I
a_i[12] I
a_i[13] I
a_i[14] I
a_i[15] I
a_i[1] I
a_i[2] I
a_i[3] I
a_i[4] I
a_i[5] I
a_i[6] I
a_i[7] I
a_i[8] I
a_i[9] I
b_i[0] I
b_i[10] I
b_i[11] I
b_i[12] I
b_i[13] I
b_i[14] I
b_i[15] I
b_i[1] I
b_i[2] I
b_i[3] I
b_i[4] I
b_i[5] I
b_i[6] I
b_i[7] I
b_i[8] I
b_i[9] I
carry_o O
clk I
sum_o[0] O
sum_o[10] O
sum_o[11] O
sum_o[12] O
sum_o[13] O
sum_o[14] O
sum_o[15] O
sum_o[1] O
sum_o[2] O
sum_o[3] O
sum_o[4] O
sum_o[5] O
sum_o[6] O
sum_o[7] O
sum_o[8] O
sum_o[9] O

*D_NET *3 0.00113366
*CONN
*P a_i[0] I
*I *192:DIODE I *D sky130_fd_sc_hd__diode_2
*I *539:A I *D sky130_fd_sc_hd__buf_1
*CAP
1 a_i[0] 0.000441964
2 *192:DIODE 0
3 *539:A 0.000106511
4 *3:7 0.000548474
5 *539:A *547:A 0
6 *539:A *132:10 3.67142e-05
7 *3:7 *19:7 0
*RES
1 a_i[0] *3:7 13.2143 
2 *3:7 *539:A 11.3893 
3 *3:7 *192:DIODE 9.3 
*END

*D_NET *4 0.000855087
*CONN
*P a_i[10] I
*I *203:DIODE I *D sky130_fd_sc_hd__diode_2
*I *550:A I *D sky130_fd_sc_hd__clkbuf_1
*CAP
1 a_i[10] 0.000283948
2 *203:DIODE 6.48989e-05
3 *550:A 0
4 *4:13 0.000348847
5 *203:DIODE *143:12 3.18676e-05
6 *4:13 *5:13 0
7 *4:13 *20:13 6.63071e-05
8 *4:13 *143:12 5.92181e-05
*RES
1 a_i[10] *4:13 11.1079 
2 *4:13 *550:A 9.3 
3 *4:13 *203:DIODE 10.6571 
*END

*D_NET *5 0.00112987
*CONN
*P a_i[11] I
*I *561:A I *D sky130_fd_sc_hd__clkbuf_1
*I *207:DIODE I *D sky130_fd_sc_hd__diode_2
*CAP
1 a_i[11] 0.000236044
2 *561:A 0
3 *207:DIODE 0.000173947
4 *5:13 0.00040999
5 *207:DIODE *492:A 5.71472e-05
6 *207:DIODE *492:B 0.000106726
7 *207:DIODE *493:B 2.44318e-05
8 *5:13 *491:B 5.7836e-06
9 *5:13 *492:A 0
10 *5:13 *20:13 6.37275e-05
11 *5:13 *21:11 5.20776e-05
12 *4:13 *5:13 0
*RES
1 a_i[11] *5:13 10.1972 
2 *5:13 *207:DIODE 12.7286 
3 *5:13 *561:A 9.3 
*END

*D_NET *6 0.00105093
*CONN
*P a_i[12] I
*I *565:A I *D sky130_fd_sc_hd__clkbuf_1
*I *208:DIODE I *D sky130_fd_sc_hd__diode_2
*CAP
1 a_i[12] 0.000145277
2 *565:A 7.45061e-05
3 *208:DIODE 0.000229599
4 *6:7 0.000449382
5 *208:DIODE *191:DIODE 5.08914e-05
6 *6:7 *21:11 4.91969e-05
7 *6:7 *22:13 5.20776e-05
*RES
1 a_i[12] *6:7 3.974 
2 *6:7 *208:DIODE 17.0589 
3 *6:7 *565:A 14.9161 
*END

*D_NET *7 0.000963839
*CONN
*P a_i[13] I
*I *566:A I *D sky130_fd_sc_hd__clkbuf_1
*I *209:DIODE I *D sky130_fd_sc_hd__diode_2
*CAP
1 a_i[13] 0.000201949
2 *566:A 0.00014479
3 *209:DIODE 0
4 *7:9 0.000346739
5 *566:A *24:13 5.33334e-05
6 *566:A *176:10 5.73739e-05
7 *7:9 *8:9 0
8 *7:9 *23:9 7.34412e-05
9 *7:9 *24:13 7.60209e-05
10 *7:9 *176:10 1.01912e-05
*RES
1 a_i[13] *7:9 4.46699 
2 *7:9 *209:DIODE 13.8 
3 *7:9 *566:A 16.6929 
*END

*D_NET *8 0.00268952
*CONN
*P a_i[14] I
*I *567:A I *D sky130_fd_sc_hd__clkbuf_1
*I *210:DIODE I *D sky130_fd_sc_hd__diode_2
*CAP
1 a_i[14] 0.000521721
2 *567:A 6.94607e-05
3 *210:DIODE 0.000370695
4 *8:9 0.000961876
5 *210:DIODE *196:DIODE 4.89867e-05
6 *210:DIODE *568:A 2.27416e-05
7 *210:DIODE *69:12 0.000140933
8 *210:DIODE *178:8 4.72917e-05
9 *567:A *511:B 1.21365e-05
10 *567:A *571:A 0
11 *567:A *25:13 1.78465e-05
12 *567:A *69:12 8.10363e-06
13 *567:A *147:10 5.52302e-05
14 *567:A *178:8 5.52302e-05
15 *8:9 *511:B 3.25247e-05
16 *8:9 *24:13 7.34412e-05
17 *8:9 *25:13 0.000135344
18 *8:9 *69:12 4.84667e-05
19 *8:9 *71:12 6.74867e-05
20 *8:9 *177:10 0
21 *7:9 *8:9 0
*RES
1 a_i[14] *8:9 7.32796 
2 *8:9 *210:DIODE 18.8536 
3 *8:9 *567:A 15.3714 
*END

*D_NET *9 0.00188076
*CONN
*P a_i[15] I
*I *211:DIODE I *D sky130_fd_sc_hd__diode_2
*I *568:A I *D sky130_fd_sc_hd__clkbuf_1
*CAP
1 a_i[15] 0.000821124
2 *211:DIODE 0
3 *568:A 5.81229e-05
4 *9:9 0.000879247
5 *568:A *196:DIODE 5.52238e-05
6 *9:9 carry_o 4.42999e-05
7 *9:9 *25:13 0
8 *210:DIODE *568:A 2.27416e-05
*RES
1 a_i[15] *9:9 10.3331 
2 *9:9 *568:A 15.0679 
3 *9:9 *211:DIODE 13.8 
*END

*D_NET *10 0.00113286
*CONN
*P a_i[1] I
*I *212:DIODE I *D sky130_fd_sc_hd__diode_2
*I *569:A I *D sky130_fd_sc_hd__clkbuf_1
*CAP
1 a_i[1] 0.000441964
2 *212:DIODE 0
3 *569:A 0.00010853
4 *10:7 0.000550494
5 *569:A *547:A 0
6 *569:A *555:A 0
7 *569:A *179:10 3.18676e-05
8 *10:7 *19:7 0
9 *10:7 *26:7 0
*RES
1 a_i[1] *10:7 13.2143 
2 *10:7 *569:A 11.3893 
3 *10:7 *212:DIODE 9.3 
*END

*D_NET *11 0.00103414
*CONN
*P a_i[2] I
*I *213:DIODE I *D sky130_fd_sc_hd__diode_2
*I *570:A I *D sky130_fd_sc_hd__clkbuf_1
*CAP
1 a_i[2] 0.000446952
2 *213:DIODE 0
3 *570:A 7.01202e-05
4 *11:7 0.000517072
5 *570:A *555:A 0
6 *11:7 sum_o[15] 0
7 *11:7 *26:7 0
*RES
1 a_i[2] *11:7 13.2143 
2 *11:7 *570:A 10.5679 
3 *11:7 *213:DIODE 9.3 
*END

*D_NET *12 0.0015284
*CONN
*P a_i[3] I
*I *540:A I *D sky130_fd_sc_hd__clkbuf_1
*I *182:DIODE I *D sky130_fd_sc_hd__diode_2
*CAP
1 a_i[3] 0.000643105
2 *540:A 0
3 *182:DIODE 7.9591e-05
4 *12:11 0.000722696
5 *182:DIODE *133:10 1.92789e-05
6 *12:11 sum_o[0] 0
7 *12:11 *36:13 6.37342e-05
*RES
1 a_i[3] *12:11 14.7916 
2 *12:11 *182:DIODE 10.6571 
3 *12:11 *540:A 9.3 
*END

*D_NET *13 0.00166868
*CONN
*P a_i[4] I
*I *541:A I *D sky130_fd_sc_hd__clkbuf_1
*I *183:DIODE I *D sky130_fd_sc_hd__diode_2
*CAP
1 a_i[4] 0.00045872
2 *541:A 0
3 *183:DIODE 0.000216186
4 *13:11 0.000674906
5 *183:DIODE *184:DIODE 0.00014285
6 *183:DIODE *135:14 2.65105e-05
7 *13:11 *585:A 0
8 *13:11 *14:11 0.000149512
*RES
1 a_i[4] *13:11 13.2891 
2 *13:11 *183:DIODE 13.1393 
3 *13:11 *541:A 9.3 
*END

*D_NET *14 0.00120855
*CONN
*P a_i[5] I
*I *542:A I *D sky130_fd_sc_hd__clkbuf_1
*I *184:DIODE I *D sky130_fd_sc_hd__diode_2
*CAP
1 a_i[5] 0.000371541
2 *542:A 0
3 *184:DIODE 4.20262e-05
4 *14:11 0.000413567
5 *184:DIODE *135:14 2.27416e-05
6 *14:11 sum_o[7] 6.63071e-05
7 *14:11 *15:11 0
8 *183:DIODE *184:DIODE 0.00014285
9 *13:11 *14:11 0.000149512
*RES
1 a_i[5] *14:11 10.4695 
2 *14:11 *184:DIODE 10.6571 
3 *14:11 *542:A 9.3 
*END

*D_NET *15 0.00075654
*CONN
*P a_i[6] I
*I *543:A I *D sky130_fd_sc_hd__clkbuf_1
*I *185:DIODE I *D sky130_fd_sc_hd__diode_2
*CAP
1 a_i[6] 0.000133528
2 *543:A 0
3 *185:DIODE 8.93506e-05
4 *15:11 0.000222878
5 *185:DIODE *202:DIODE 3.14078e-05
6 *185:DIODE *467:B 0.000144773
7 *15:11 sum_o[7] 5.85825e-05
8 *15:11 *31:9 7.60209e-05
9 *15:11 *134:12 0
10 *14:11 *15:11 0
*RES
1 a_i[6] *15:11 8.75079 
2 *15:11 *185:DIODE 11.4786 
3 *15:11 *543:A 9.3 
*END

*D_NET *16 0.000962501
*CONN
*P a_i[7] I
*I *544:A I *D sky130_fd_sc_hd__clkbuf_1
*I *186:DIODE I *D sky130_fd_sc_hd__diode_2
*CAP
1 a_i[7] 0.000357841
2 *544:A 0.000112038
3 *186:DIODE 0
4 *16:7 0.00046988
5 *544:A *137:8 2.27416e-05
6 *16:7 sum_o[8] 0
*RES
1 a_i[7] *16:7 11.3929 
2 *16:7 *186:DIODE 9.3 
3 *16:7 *544:A 11.3893 
*END

*D_NET *17 0.000863335
*CONN
*P a_i[8] I
*I *545:A I *D sky130_fd_sc_hd__clkbuf_1
*I *187:DIODE I *D sky130_fd_sc_hd__diode_2
*CAP
1 a_i[8] 0.000357192
2 *545:A 6.35914e-05
3 *187:DIODE 0
4 *17:7 0.000420784
5 *545:A *564:A 0
6 *545:A *105:12 2.1768e-05
7 *17:7 *34:7 0
*RES
1 a_i[8] *17:7 11.3929 
2 *17:7 *187:DIODE 9.3 
3 *17:7 *545:A 10.5679 
*END

*D_NET *18 0.00110431
*CONN
*P a_i[9] I
*I *546:A I *D sky130_fd_sc_hd__clkbuf_1
*I *188:DIODE I *D sky130_fd_sc_hd__diode_2
*CAP
1 a_i[9] 0.000400855
2 *546:A 0
3 *188:DIODE 3.03582e-05
4 *18:7 0.000431214
5 *188:DIODE *481:A 0.00014285
6 *188:DIODE *482:B 9.90367e-05
7 *18:7 *481:A 0
8 *18:7 *34:7 0
*RES
1 a_i[9] *18:7 12 
2 *18:7 *188:DIODE 10.6571 
3 *18:7 *546:A 9.3 
*END

*D_NET *19 0.00102417
*CONN
*P b_i[0] I
*I *189:DIODE I *D sky130_fd_sc_hd__diode_2
*I *547:A I *D sky130_fd_sc_hd__buf_1
*CAP
1 b_i[0] 0.000441964
2 *189:DIODE 0
3 *547:A 7.01202e-05
4 *19:7 0.000512084
5 *539:A *547:A 0
6 *569:A *547:A 0
7 *3:7 *19:7 0
8 *10:7 *19:7 0
*RES
1 b_i[0] *19:7 13.2143 
2 *19:7 *547:A 10.5679 
3 *19:7 *189:DIODE 9.3 
*END

*D_NET *20 0.000665784
*CONN
*P b_i[10] I
*I *190:DIODE I *D sky130_fd_sc_hd__diode_2
*I *548:A I *D sky130_fd_sc_hd__clkbuf_1
*CAP
1 b_i[10] 0.000170652
2 *190:DIODE 6.96077e-05
3 *548:A 0
4 *20:13 0.00024026
5 *190:DIODE *109:12 5.52302e-05
6 *4:13 *20:13 6.63071e-05
7 *5:13 *20:13 6.37275e-05
*RES
1 b_i[10] *20:13 9.62515 
2 *20:13 *548:A 9.3 
3 *20:13 *190:DIODE 10.6571 
*END

*D_NET *21 0.00084509
*CONN
*P b_i[11] I
*I *191:DIODE I *D sky130_fd_sc_hd__diode_2
*I *549:A I *D sky130_fd_sc_hd__clkbuf_1
*CAP
1 b_i[11] 0.000227601
2 *191:DIODE 9.2674e-05
3 *549:A 0
4 *21:11 0.000320275
5 *191:DIODE *142:10 5.23735e-05
6 *208:DIODE *191:DIODE 5.08914e-05
7 *5:13 *21:11 5.20776e-05
8 *6:7 *21:11 4.91969e-05
*RES
1 b_i[11] *21:11 9.43 
2 *21:11 *549:A 9.3 
3 *21:11 *191:DIODE 11.4786 
*END

*D_NET *22 0.000896368
*CONN
*P b_i[12] I
*I *193:DIODE I *D sky130_fd_sc_hd__diode_2
*I *551:A I *D sky130_fd_sc_hd__clkbuf_1
*CAP
1 b_i[12] 0.000310377
2 *193:DIODE 7.87883e-05
3 *551:A 0
4 *22:13 0.000389165
5 *193:DIODE *575:A 7.43578e-06
6 *22:13 sum_o[12] 2.25951e-05
7 *22:13 sum_o[13] 0
8 *22:13 *144:12 3.59293e-05
9 *6:7 *22:13 5.20776e-05
*RES
1 b_i[12] *22:13 11.4115 
2 *22:13 *551:A 9.3 
3 *22:13 *193:DIODE 10.6571 
*END

*D_NET *23 0.000818554
*CONN
*P b_i[13] I
*I *194:DIODE I *D sky130_fd_sc_hd__diode_2
*I *552:A I *D sky130_fd_sc_hd__clkbuf_1
*CAP
1 b_i[13] 0.000132786
2 *194:DIODE 0.000170379
3 *552:A 3.47527e-05
4 *23:9 0.000337917
5 *194:DIODE *501:B 0
6 *194:DIODE *176:10 0
7 *23:9 sum_o[13] 6.92776e-05
8 *7:9 *23:9 7.34412e-05
*RES
1 b_i[13] *23:9 4.25079 
2 *23:9 *552:A 14.3357 
3 *23:9 *194:DIODE 16.2821 
*END

*D_NET *24 0.000976074
*CONN
*P b_i[14] I
*I *195:DIODE I *D sky130_fd_sc_hd__diode_2
*I *553:A I *D sky130_fd_sc_hd__clkbuf_1
*CAP
1 b_i[14] 0.000274785
2 *195:DIODE 3.13847e-05
3 *553:A 3.82418e-05
4 *24:13 0.000344412
5 *553:A *508:A 0
6 *24:13 *146:12 6.29308e-05
7 *24:13 *176:10 2.15245e-05
8 *566:A *24:13 5.33334e-05
9 *7:9 *24:13 7.60209e-05
10 *8:9 *24:13 7.34412e-05
*RES
1 b_i[14] *24:13 11.6436 
2 *24:13 *553:A 10.0321 
3 *24:13 *195:DIODE 9.83571 
*END

*D_NET *25 0.00188525
*CONN
*P b_i[15] I
*I *196:DIODE I *D sky130_fd_sc_hd__diode_2
*I *554:A I *D sky130_fd_sc_hd__clkbuf_1
*CAP
1 b_i[15] 0.00056973
2 *196:DIODE 0.000149915
3 *554:A 0
4 *25:13 0.000719645
5 *196:DIODE *512:B 0
6 *196:DIODE *147:10 5.7661e-06
7 *196:DIODE *178:8 2.44318e-05
8 *25:13 carry_o 4.68796e-05
9 *25:13 *147:10 1.24368e-05
10 *25:13 *178:8 9.90431e-05
11 *210:DIODE *196:DIODE 4.89867e-05
12 *567:A *25:13 1.78465e-05
13 *568:A *196:DIODE 5.52238e-05
14 *8:9 *25:13 0.000135344
15 *9:9 *25:13 0
*RES
1 b_i[15] *25:13 10.7935 
2 *25:13 *554:A 9.3 
3 *25:13 *196:DIODE 12.3179 
*END

*D_NET *26 0.0010382
*CONN
*P b_i[1] I
*I *197:DIODE I *D sky130_fd_sc_hd__diode_2
*I *555:A I *D sky130_fd_sc_hd__clkbuf_1
*CAP
1 b_i[1] 0.000441964
2 *197:DIODE 0
3 *555:A 7.22648e-05
4 *26:7 0.000514228
5 *555:A *179:10 6.05161e-06
6 *555:A *180:14 3.69047e-06
7 *569:A *555:A 0
8 *570:A *555:A 0
9 *10:7 *26:7 0
10 *11:7 *26:7 0
*RES
1 b_i[1] *26:7 13.2143 
2 *26:7 *555:A 10.5679 
3 *26:7 *197:DIODE 9.3 
*END

*D_NET *27 0.000917462
*CONN
*P b_i[2] I
*I *556:A I *D sky130_fd_sc_hd__clkbuf_1
*I *198:DIODE I *D sky130_fd_sc_hd__diode_2
*CAP
1 b_i[2] 0.000311584
2 *556:A 0
3 *198:DIODE 7.12814e-05
4 *27:11 0.000382865
5 *198:DIODE *149:10 3.18676e-05
6 *27:11 sum_o[0] 0
7 *27:11 sum_o[1] 5.65933e-05
8 *27:11 sum_o[2] 5.40205e-05
9 *27:11 sum_o[3] 0
10 *27:11 *580:A 9.25014e-06
11 *27:11 *36:13 0
12 *27:11 *133:10 0
*RES
1 b_i[2] *27:11 9.94977 
2 *27:11 *198:DIODE 10.6571 
3 *27:11 *556:A 9.3 
*END

*D_NET *28 0.000848399
*CONN
*P b_i[3] I
*I *557:A I *D sky130_fd_sc_hd__clkbuf_1
*I *199:DIODE I *D sky130_fd_sc_hd__diode_2
*CAP
1 b_i[3] 0.000216443
2 *557:A 6.55016e-05
3 *199:DIODE 6.0576e-05
4 *28:7 0.00034252
5 *199:DIODE *36:13 0
6 *557:A *581:A 0
7 *557:A *36:13 0
8 *28:7 sum_o[3] 8.07399e-05
9 *28:7 sum_o[5] 8.26187e-05
*RES
1 b_i[3] *28:7 4.26227 
2 *28:7 *199:DIODE 14.6839 
3 *28:7 *557:A 14.9875 
*END

*D_NET *29 0.000689874
*CONN
*P b_i[4] I
*I *558:A I *D sky130_fd_sc_hd__clkbuf_1
*I *200:DIODE I *D sky130_fd_sc_hd__diode_2
*CAP
1 b_i[4] 0.000210798
2 *558:A 0
3 *200:DIODE 6.72959e-05
4 *29:13 0.000278094
5 *200:DIODE *151:10 5.66971e-05
6 *29:13 sum_o[6] 4.01819e-05
7 *29:13 *30:11 3.68077e-05
*RES
1 b_i[4] *29:13 10.1602 
2 *29:13 *200:DIODE 10.6571 
3 *29:13 *558:A 9.3 
*END

*D_NET *30 0.000628325
*CONN
*P b_i[5] I
*I *559:A I *D sky130_fd_sc_hd__clkbuf_1
*I *201:DIODE I *D sky130_fd_sc_hd__diode_2
*CAP
1 b_i[5] 0.000188999
2 *559:A 0
3 *201:DIODE 7.26532e-05
4 *30:11 0.000261652
5 *201:DIODE *152:14 2.11336e-05
6 *30:11 sum_o[4] 4.70788e-05
7 *29:13 *30:11 3.68077e-05
*RES
1 b_i[5] *30:11 9.05436 
2 *30:11 *201:DIODE 10.6571 
3 *30:11 *559:A 9.3 
*END

*D_NET *31 0.000902513
*CONN
*P b_i[6] I
*I *560:A I *D sky130_fd_sc_hd__clkbuf_1
*I *202:DIODE I *D sky130_fd_sc_hd__diode_2
*CAP
1 b_i[6] 0.000115747
2 *560:A 0
3 *202:DIODE 0.000189494
4 *31:9 0.00030524
5 *202:DIODE *466:B 7.92879e-05
6 *202:DIODE *467:B 3.18676e-05
7 *31:9 sum_o[6] 7.3448e-05
8 *31:9 *134:12 0
9 *185:DIODE *202:DIODE 3.14078e-05
10 *15:11 *31:9 7.60209e-05
*RES
1 b_i[6] *31:9 4.25079 
2 *31:9 *202:DIODE 17.1036 
3 *31:9 *560:A 13.8 
*END

*D_NET *32 0.00105292
*CONN
*P b_i[7] I
*I *562:A I *D sky130_fd_sc_hd__clkbuf_1
*I *204:DIODE I *D sky130_fd_sc_hd__diode_2
*CAP
1 b_i[7] 0.000355127
2 *562:A 0.000132753
3 *204:DIODE 0
4 *32:7 0.00048788
5 *562:A *472:A 4.22908e-05
6 *562:A *472:B 3.48705e-05
7 *32:7 sum_o[10] 0
8 *32:7 sum_o[8] 0
*RES
1 b_i[7] *32:7 11.3929 
2 *32:7 *204:DIODE 9.3 
3 *32:7 *562:A 11.925 
*END

*D_NET *33 0.000971334
*CONN
*P b_i[8] I
*I *563:A I *D sky130_fd_sc_hd__clkbuf_1
*I *205:DIODE I *D sky130_fd_sc_hd__diode_2
*CAP
1 b_i[8] 0.000362258
2 *563:A 0.000112038
3 *205:DIODE 0
4 *33:7 0.000474296
5 *563:A *156:14 2.27416e-05
6 *33:7 sum_o[9] 0
*RES
1 b_i[8] *33:7 11.3929 
2 *33:7 *205:DIODE 9.3 
3 *33:7 *563:A 11.3893 
*END

*D_NET *34 0.000977737
*CONN
*P b_i[9] I
*I *564:A I *D sky130_fd_sc_hd__clkbuf_1
*I *206:DIODE I *D sky130_fd_sc_hd__diode_2
*CAP
1 b_i[9] 0.000355557
2 *564:A 0.00010118
3 *206:DIODE 0
4 *34:7 0.000456737
5 *564:A *481:A 0
6 *564:A *105:12 3.23957e-05
7 *564:A *157:8 3.18676e-05
8 *545:A *564:A 0
9 *17:7 *34:7 0
10 *18:7 *34:7 0
*RES
1 b_i[9] *34:7 11.3929 
2 *34:7 *206:DIODE 9.3 
3 *34:7 *564:A 11.3893 
*END

*D_NET *35 0.000820314
*CONN
*P carry_o O
*I *571:X O *D sky130_fd_sc_hd__buf_2
*CAP
1 carry_o 0.000362722
2 *571:X 0.000362722
3 carry_o *511:A 3.69047e-06
4 *9:9 carry_o 4.42999e-05
5 *25:13 carry_o 4.68796e-05
*RES
1 *571:X carry_o 21.8346 
*END

*D_NET *36 0.00545827
*CONN
*P clk I
*I *181:DIODE I *D sky130_fd_sc_hd__diode_2
*I *535:A I *D sky130_fd_sc_hd__clkbuf_16
*CAP
1 clk 0.0022108
2 *181:DIODE 0
3 *535:A 0.000103143
4 *36:13 0.00231394
5 *36:13 sum_o[0] 6.37342e-05
6 *36:13 sum_o[1] 0.000214782
7 *36:13 sum_o[2] 0.000115699
8 *36:13 sum_o[3] 1.12484e-05
9 *36:13 sum_o[4] 1.36589e-05
10 *36:13 sum_o[5] 3.09981e-05
11 *36:13 *452:B 0
12 *36:13 *524:CLK 0.000186662
13 *36:13 *579:A 0
14 *36:13 *580:A 0
15 *36:13 *581:A 0.000129868
16 *36:13 *583:A 0
17 *36:13 *133:10 0
18 *199:DIODE *36:13 0
19 *557:A *36:13 0
20 *12:11 *36:13 6.37342e-05
21 *27:11 *36:13 0
*RES
1 clk *36:13 41.9644 
2 *36:13 *535:A 10.675 
3 *36:13 *181:DIODE 9.3 
*END

*D_NET *37 0.000767482
*CONN
*P sum_o[0] O
*I *572:X O *D sky130_fd_sc_hd__buf_2
*CAP
1 sum_o[0] 0.000320859
2 *572:X 0.000320859
3 sum_o[0] sum_o[1] 5.18383e-05
4 sum_o[0] *572:A 1.01912e-05
5 *12:11 sum_o[0] 0
6 *27:11 sum_o[0] 0
7 *36:13 sum_o[0] 6.37342e-05
*RES
1 *572:X sum_o[0] 18.4832 
*END

*D_NET *38 0.000950737
*CONN
*P sum_o[10] O
*I *573:X O *D sky130_fd_sc_hd__buf_2
*CAP
1 sum_o[10] 0.000475368
2 *573:X 0.000475368
3 sum_o[10] sum_o[9] 0
4 *32:7 sum_o[10] 0
*RES
1 *573:X sum_o[10] 22.05 
*END

*D_NET *39 0.000951418
*CONN
*P sum_o[11] O
*I *574:X O *D sky130_fd_sc_hd__buf_2
*CAP
1 sum_o[11] 0.000472683
2 *574:X 0.000472683
3 sum_o[11] *574:A 6.05161e-06
*RES
1 *574:X sum_o[11] 22.3 
*END

*D_NET *40 0.000724456
*CONN
*P sum_o[12] O
*I *575:X O *D sky130_fd_sc_hd__buf_2
*CAP
1 sum_o[12] 0.000336546
2 *575:X 0.000336546
3 sum_o[12] sum_o[13] 2.87684e-05
4 *22:13 sum_o[12] 2.25951e-05
*RES
1 *575:X sum_o[12] 20.891 
*END

*D_NET *41 0.000541701
*CONN
*P sum_o[13] O
*I *576:X O *D sky130_fd_sc_hd__buf_2
*CAP
1 sum_o[13] 0.000221827
2 *576:X 0.000221827
3 sum_o[13] *505:A 0
4 sum_o[12] sum_o[13] 2.87684e-05
5 *22:13 sum_o[13] 0
6 *23:9 sum_o[13] 6.92776e-05
*RES
1 *576:X sum_o[13] 18.4985 
*END

*D_NET *42 0.00113669
*CONN
*P sum_o[14] O
*I *577:X O *D sky130_fd_sc_hd__buf_2
*CAP
1 sum_o[14] 0.000568347
2 *577:X 0.000568347
*RES
1 *577:X sum_o[14] 24.1214 
*END

*D_NET *43 0.00114662
*CONN
*P sum_o[15] O
*I *578:X O *D sky130_fd_sc_hd__buf_2
*CAP
1 sum_o[15] 0.000557376
2 *578:X 0.000557376
3 sum_o[15] *578:A 3.18676e-05
4 *11:7 sum_o[15] 0
*RES
1 *578:X sum_o[15] 23.8714 
*END

*D_NET *44 0.000942353
*CONN
*P sum_o[1] O
*I *579:X O *D sky130_fd_sc_hd__buf_2
*CAP
1 sum_o[1] 0.00030957
2 *579:X 0.00030957
3 sum_o[0] sum_o[1] 5.18383e-05
4 *27:11 sum_o[1] 5.65933e-05
5 *36:13 sum_o[1] 0.000214782
*RES
1 *579:X sum_o[1] 21.6924 
*END

*D_NET *45 0.000768304
*CONN
*P sum_o[2] O
*I *580:X O *D sky130_fd_sc_hd__buf_2
*CAP
1 sum_o[2] 0.000270995
2 *580:X 0.000270995
3 sum_o[2] sum_o[3] 5.65933e-05
4 *27:11 sum_o[2] 5.40205e-05
5 *36:13 sum_o[2] 0.000115699
*RES
1 *580:X sum_o[2] 20.4781 
*END

*D_NET *46 0.000669378
*CONN
*P sum_o[3] O
*I *581:X O *D sky130_fd_sc_hd__buf_2
*CAP
1 sum_o[3] 0.000239602
2 *581:X 0.000239602
3 sum_o[3] *452:B 0
4 sum_o[3] *581:A 4.15914e-05
5 sum_o[2] sum_o[3] 5.65933e-05
6 *27:11 sum_o[3] 0
7 *28:7 sum_o[3] 8.07399e-05
8 *36:13 sum_o[3] 1.12484e-05
*RES
1 *581:X sum_o[3] 19.4092 
*END

*D_NET *47 0.000809348
*CONN
*P sum_o[4] O
*I *582:X O *D sky130_fd_sc_hd__buf_2
*CAP
1 sum_o[4] 0.000303259
2 *582:X 0.000303259
3 sum_o[4] sum_o[5] 6.37342e-05
4 sum_o[4] *582:A 7.83587e-05
5 *30:11 sum_o[4] 4.70788e-05
6 *36:13 sum_o[4] 1.36589e-05
*RES
1 *582:X sum_o[4] 20.5501 
*END

*D_NET *48 0.000554661
*CONN
*P sum_o[5] O
*I *583:X O *D sky130_fd_sc_hd__buf_2
*CAP
1 sum_o[5] 0.000188655
2 *583:X 0.000188655
3 sum_o[5] *583:A 0
4 sum_o[4] sum_o[5] 6.37342e-05
5 *28:7 sum_o[5] 8.26187e-05
6 *36:13 sum_o[5] 3.09981e-05
*RES
1 *583:X sum_o[5] 18.73 
*END

*D_NET *49 0.000614562
*CONN
*P sum_o[6] O
*I *584:X O *D sky130_fd_sc_hd__buf_2
*CAP
1 sum_o[6] 0.000235167
2 *584:X 0.000235167
3 sum_o[6] *584:A 3.05988e-05
4 *29:13 sum_o[6] 4.01819e-05
5 *31:9 sum_o[6] 7.3448e-05
*RES
1 *584:X sum_o[6] 18.8021 
*END

*D_NET *50 0.000717072
*CONN
*P sum_o[7] O
*I *585:X O *D sky130_fd_sc_hd__buf_2
*CAP
1 sum_o[7] 0.000263132
2 *585:X 0.000263132
3 sum_o[7] *585:A 6.5919e-05
4 *14:11 sum_o[7] 6.63071e-05
5 *15:11 sum_o[7] 5.85825e-05
*RES
1 *585:X sum_o[7] 19.943 
*END

*D_NET *51 0.000947328
*CONN
*P sum_o[8] O
*I *586:X O *D sky130_fd_sc_hd__buf_2
*CAP
1 sum_o[8] 0.000465768
2 *586:X 0.000465768
3 sum_o[8] *137:8 1.57931e-05
4 *16:7 sum_o[8] 0
5 *32:7 sum_o[8] 0
*RES
1 *586:X sum_o[8] 22.05 
*END

*D_NET *52 0.000957222
*CONN
*P sum_o[9] O
*I *587:X O *D sky130_fd_sc_hd__buf_2
*CAP
1 sum_o[9] 0.000464155
2 *587:X 0.000464155
3 sum_o[9] *587:A 2.89114e-05
4 sum_o[10] sum_o[9] 0
5 *33:7 sum_o[9] 0
*RES
1 *587:X sum_o[9] 22.05 
*END

*D_NET *53 0.000801073
*CONN
*I *499:B1_N I *D sky130_fd_sc_hd__a21bo_1
*I *493:B I *D sky130_fd_sc_hd__nand2_1
*I *492:Y O *D sky130_fd_sc_hd__nand2_1
*CAP
1 *499:B1_N 0.000116732
2 *493:B 0.000140383
3 *492:Y 0
4 *53:4 0.000257115
5 *493:B *492:A 5.52302e-05
6 *493:B *492:B 2.25461e-05
7 *499:B1_N *492:A 0.000127939
8 *499:B1_N *112:6 5.66971e-05
9 *207:DIODE *493:B 2.44318e-05
*RES
1 *492:Y *53:4 9.3 
2 *53:4 *493:B 12.2286 
3 *53:4 *499:B1_N 20.8893 
*END

*D_NET *54 0.000830935
*CONN
*I *495:A I *D sky130_fd_sc_hd__xnor2_1
*I *493:Y O *D sky130_fd_sc_hd__nand2_1
*CAP
1 *495:A 0.000353093
2 *493:Y 0.000353093
3 *495:A *55:10 0.000124749
*RES
1 *493:Y *495:A 32.5464 
*END

*D_NET *55 0.000745761
*CONN
*I *495:B I *D sky130_fd_sc_hd__xnor2_1
*I *499:A2 I *D sky130_fd_sc_hd__a21bo_1
*I *494:X O *D sky130_fd_sc_hd__a21bo_1
*CAP
1 *495:B 0
2 *499:A2 0.000108117
3 *494:X 0.00020239
4 *55:10 0.000310506
5 *55:10 *493:A 0
6 *55:10 *530:CLK 0
7 *495:A *55:10 0.000124749
*RES
1 *494:X *55:10 22.3714 
2 *55:10 *499:A2 11.0679 
3 *55:10 *495:B 9.3 
*END

*D_NET *56 0.000545593
*CONN
*I *504:A1 I *D sky130_fd_sc_hd__a21bo_1
*I *498:A I *D sky130_fd_sc_hd__nand2_1
*I *496:X O *D sky130_fd_sc_hd__or2_1
*CAP
1 *504:A1 0
2 *498:A 0.000136481
3 *496:X 0.00013447